@<TRIPOS>MOLECULE
XJL
  138   144     9     0     1 
SMALL
USER_CHARGES
@<TRIPOS>ATOM
  1 C1      3.540003    1.419779    0.000002 C     1 XJL    -0.1201 ****
  2 H3      2.546808    1.870918   -0.050009 H     1 XJL     0.0265 ****
  3 H4      3.600006    0.813569    0.906298 H     1 XJL     0.0265 ****
  4 H5      3.673925    0.776066   -0.870618 H     1 XJL     0.0265 ****
  5 C2      4.613271    2.530959    0.019999 C     1 XJL    -0.1024 ****
  6 H6      4.523331    3.114735   -0.899656 H     1 XJL     0.0289 ****
  7 H7      4.400273    3.193080    0.863134 H     1 XJL     0.0289 ****
  8 C3      6.064791    1.994057    0.148969 C     1 XJL    -0.1308 ****
  9 H8      6.149732    1.422294    1.076612 H     1 XJL     0.0431 ****
 10 H9      6.282668    1.325320   -0.687673 H     1 XJL     0.0431 ****
 11 C4      7.106751    3.146897    0.162964 C     1 XJL     0.0378 ****
 12 H10     7.096788    3.633670   -0.815607 H     1 XJL     0.0459 ****
 13 H11     6.797860    3.882755    0.909790 H     1 XJL     0.0459 ****
 14 N1      8.467421    2.680604    0.430391 N     2 JLK     0.0420 ****
 15 N4      8.697581    1.421138    0.624806 N     2 JLK    -0.1663 ****
 16 N7      9.942425    1.198824    0.853204 N     2 JLK    -0.3488 ****
 17 C13     9.580879    3.447476    0.504111 C     2 JLK    -0.1907 ****
 18 H14     9.644120    4.461386    0.383624 H     2 JLK     0.2019 ****
 19 C10    10.618270    2.352558    0.819045 C     2 JLK     0.2462 ****
 20 C15    12.066777    2.226043    1.095126 C     2 JLK     0.1188 ****
 21 H19    12.134104    1.769484    2.088125 H     2 JLK     0.0484 ****
 22 H20    12.447305    1.505154    0.364002 H     2 JLK     0.0484 ****
 23 O1     12.659442    3.529390    1.069454 O     3 LKK    -0.4021 ****
 24 C2     14.076238    3.495645    1.330283 C     3 LKK     0.0879 ****
 25 H4     14.587978    2.888446    0.579230 H     3 LKK     0.0559 ****
 26 H5     14.183628    3.057092    2.324568 H     3 LKK     0.0559 ****
 27 C3     14.763768    4.884712    1.313072 C     3 LKK     0.0928 ****
 28 H6     14.594324    5.363795    0.346516 H     3 LKK     0.0549 ****
 29 H7     14.299902    5.513810    2.074220 H     3 LKK     0.0549 ****
 30 O1     16.165678    4.686467    1.527480 O     4 KKK    -0.4130 ****
 31 C2     16.901149    5.920990    1.529768 C     4 KKK     0.0992 ****
 32 H4     16.535431    6.576332    2.324391 H     4 KKK     0.0547 ****
 33 H5     16.734878    6.367390    0.548258 H     4 KKK     0.0547 ****
 34 C3     18.430662    5.768608    1.758432 C     4 KKK     0.0951 ****
 35 H6     18.609091    5.280029    2.719735 H     4 KKK     0.0547 ****
 36 H7     18.836574    5.119719    0.980961 H     4 KKK     0.0547 ****
 37 O13    19.010635    7.077896    1.754031 O     5 KKI    -0.4194 ****
 38 C9     20.412860    7.050021    1.956211 C     5 KKI     0.1312 ****
 39 H48    20.889305    6.466699    1.154502 H     5 KKI     0.0395 ****
 40 H49    20.634667    6.584701    2.927951 H     5 KKI     0.0395 ****
 41 C15    20.944517    8.486674    1.936417 C     5 KKI     0.1281 ****
 42 H43    20.467952    9.068965    2.738802 H     5 KKI     0.0406 ****
 43 H44    20.721884    8.950209    0.962882 H     5 KKI     0.0406 ****
 44 O27    22.361209    8.436318    2.139083 O     6 KIL    -0.4010 ****
 45 C24    22.961899    9.738441    2.137864 C     6 KIL     0.1286 ****
 46 H9     22.512305   10.333597    2.954498 H     6 KIL     0.0470 ****
 47 H10    22.768228   10.217244    1.165526 H     6 KIL     0.0470 ****
 48 C30    24.509836    9.700432    2.358187 C     6 KIL     0.1546 ****
 49 O24    25.265440    8.983496    1.353760 O     6 KIL    -0.4155 ****
 50 C21    25.157957    7.630141    1.495541 C     6 KIL     0.6707 ****
 51 C18    26.052680    6.809507    0.723044 C     6 KIL    -0.1484 ****
 52 C16    27.033442    6.310013    1.762663 C     6 KIL     0.0445 ****
 53 N13    27.993119    5.543454    1.144576 N     6 KIL    -0.2020 ****
 54 C1     27.785781    4.597651    0.176780 C     6 KIL     0.4093 ****
 55 N4     28.910094    4.139648   -0.219303 N     6 KIL    -0.6311 ****
 56 C7     29.916205    4.821894    0.524274 C     6 KIL     0.3071 ****
 57 C10    29.315123    5.678666    1.341725 C     6 KIL    -0.2426 ****
 58 H3     29.775742    6.346914    2.023543 H     6 KIL     0.1871 ****
 59 H2     30.972892    4.673628    0.432230 H     6 KIL     0.0453 ****
 60 H1     26.835023    4.296847   -0.191386 H     6 KIL     0.0642 ****
 61 H4     26.482015    5.703783    2.496430 H     6 KIL     0.0827 ****
 62 H5     27.510271    7.156972    2.271291 H     6 KIL     0.0827 ****
 63 H6     26.565524    7.402346   -0.047238 H     6 KIL     0.0953 ****
 64 H7     25.530032    5.936530    0.294597 H     6 KIL     0.0953 ****
 65 O28    24.515785    7.138499    2.422257 O     6 KIL    -0.5153 ****
 66 H8     24.752118    9.262385    3.339929 H     6 KIL     0.0995 ****
 67 C25    24.984670   11.164746    2.314392 C     6 KIL    -0.1130 ****
 68 H11    24.440534   11.746757    3.058220 H     6 KIL     0.0540 ****
 69 H12    24.796840   11.578261    1.323521 H     6 KIL     0.0540 ****
 70 N1     26.413279   11.308110    2.595273 N     7 ILT     0.0035 ****
 71 N4     27.165788   10.219268    2.855950 N     7 ILT    -0.1685 ****
 72 N7     28.330292   10.549077    3.063653 N     7 ILT    -0.3383 ****
 73 C13    27.140586   12.508566    2.629114 C     7 ILT    -0.1702 ****
 74 H1     26.770740   13.495692    2.457587 H     7 ILT     0.2081 ****
 75 C10    28.458779   11.951766    2.954603 C     7 ILT     0.2476 ****
 76 C16    29.814683   12.695095    3.160967 C     7 ILT     0.1190 ****
 77 H2     30.007562   13.372283    2.311954 H     7 ILT     0.0494 ****
 78 H3     29.748332   13.327787    4.063250 H     7 ILT     0.0494 ****
 79 O3     30.866042   11.726718    3.247650 O     8 LTP    -0.3851 ****
 80 C13    32.134892   12.321649    3.435987 C     8 LTP     0.1052 ****
 81 H22    32.143028   12.915911    4.382936 H     8 LTP     0.0521 ****
 82 H23    32.381365   13.001471    2.589901 H     8 LTP     0.0521 ****
 83 C11    33.234933   11.234585    3.523180 C     8 LTP     0.1679 ****
 84 O2     33.222830   10.458543    4.684740 O     8 LTP    -0.4021 ****
 85 C10    32.177870    9.755684    5.195551 C     8 LTP     0.7269 ****
 86 C5     32.344123    8.274557    5.498969 C     8 LTP    -0.0587 ****
 87 C4     31.019670    7.650155    5.956246 C     8 LTP    -0.0680 ****
 88 C1     31.149437    6.130444    6.278923 C     8 LTP     0.2020 ****
 89 N      32.530845    5.617754    6.192691 N     8 LTP     0.0396 ****
 90 O      32.656964    4.430978    8.013402 O     8 LTP    -0.1099 ****
 91 LP     32.684139    4.649744    8.405707 L     8 LTP    -0.1024 ****
 92 LP     32.656415    3.981049    8.005465 L     8 LTP    -0.1024 ****
 93 C2     33.652411    6.441801    6.681221 C     8 LTP     0.2020 ****
 94 C3     33.339254    7.967233    6.632697 C     8 LTP    -0.0680 ****
 95 H3     34.288626    8.540884    6.541128 H     8 LTP     0.0257 ****
 96 H4     32.876882    8.304890    7.588310 H     8 LTP     0.0257 ****
 97 C6     34.848228    6.146557    5.753527 C     8 LTP    -0.0829 ****
 98 H5     34.636970    6.459061    4.710650 H     8 LTP     0.0289 ****
 99 H6     35.081658    5.059344    5.748899 H     8 LTP     0.0289 ****
100 H7     35.757541    6.685034    6.102759 H     8 LTP     0.0289 ****
101 C7     34.045319    5.982698    8.099887 C     8 LTP    -0.0829 ****
102 H8     33.228470    6.147516    8.825571 H     8 LTP     0.0289 ****
103 H9     34.939082    6.530017    8.465579 H     8 LTP     0.0289 ****
104 H10    34.272073    4.893042    8.098735 H     8 LTP     0.0289 ****
105 C8     30.332567    5.348398    5.233588 C     8 LTP    -0.0829 ****
106 H11    30.715059    5.553757    4.209834 H     8 LTP     0.0289 ****
107 H12    29.260107    5.643812    5.270041 H     8 LTP     0.0289 ****
108 H13    30.394976    4.254675    5.418511 H     8 LTP     0.0289 ****
109 C9     30.562651    5.812255    7.667851 C     8 LTP    -0.0829 ****
110 H14    31.083495    6.383720    8.460061 H     8 LTP     0.0289 ****
111 H15    30.661634    4.728248    7.890232 H     8 LTP     0.0289 ****
112 H16    29.487715    6.089086    7.714717 H     8 LTP     0.0289 ****
113 H1     30.699095    8.194793    6.876060 H     8 LTP     0.0257 ****
114 H2     30.211529    7.847750    5.216899 H     8 LTP     0.0257 ****
115 H17    32.681260    7.805083    4.550151 H     8 LTP     0.0363 ****
116 O1     31.094475   10.299904    5.356203 O     8 LTP    -0.5046 ****
117 H21    33.119887   10.565801    2.640989 H     8 LTP     0.1023 ****
118 C12    34.612412   11.894530    3.418369 C     8 LTP    -0.1193 ****
119 H18    34.775076   12.586831    4.271939 H     8 LTP     0.0582 ****
120 H19    34.697670   12.467958    2.469446 H     8 LTP     0.0582 ****
121 N2     35.686859   10.903155    3.432008 N     9 TPX     0.5744 ****
122 C9     36.980411   11.307748    3.347211 C     9 TPX    -0.2701 ****
123 C8     37.714940   10.139028    3.388706 C     9 TPX    -0.3358 ****
124 N7     36.819684    9.106102    3.494648 N     9 TPX     0.4827 ****
125 Cu21   37.657181    7.237951    3.578370 C     9 TPX    -0.0602 ****
126 I22    37.954431    4.810338    3.722731 I     9 TPX    -0.4374 ****
127 N15    39.448036    8.536992    3.413452 N     9 TPX    -0.1975 ****
128 C10    39.152879    9.849297    3.341700 C     9 TPX     0.4577 ****
129 C11    40.142951   10.830251    3.232667 C     9 TPX    -0.2243 ****
130 C12    41.476158   10.424558    3.197886 C     9 TPX    -0.1178 ****
131 C13    41.778603    9.064772    3.272283 C     9 TPX    -0.1056 ****
132 C14    40.726938    8.154567    3.379760 C     9 TPX     0.0182 ****
133 H19    40.895014    7.082436    3.441848 H     9 TPX     0.1229 ****
134 H18    42.804941    8.713606    3.249080 H     9 TPX     0.1352 ****
135 H17    42.267367   11.163632    3.113305 H     9 TPX     0.1492 ****
136 H16    39.878533   11.881031    3.176356 H     9 TPX     0.1597 ****
137 H20    37.259618   12.346017    3.268953 H     9 TPX     0.2051 ****
138 N6     35.289126    9.624243    3.531204 N     9 TPX    -0.5563 ****
@<TRIPOS>BOND
    1    11    12 1
    2    11    13 1
    3    11    14 1
    4     8     9 1
    5     8    10 1
    6     8    11 1
    7     5     6 1
    8     5     7 1
    9     5     8 1
   10     1     2 1
   11     1     3 1
   12     1     4 1
   13     1     5 1
   14    20    21 1
   15    20    22 1
   16    20    23 1
   17    19    20 1
   18    17    18 1
   19    17    19 1
   20    16    19 1
   21    15    16 1
   22    14    15 1
   23    14    17 1
   24    27    28 1
   25    27    29 1
   26    27    30 1
   27    24    25 1
   28    24    26 1
   29    24    27 1
   30    23    24 1
   31    34    35 1
   32    34    36 1
   33    34    37 1
   34    31    32 1
   35    31    33 1
   36    31    34 1
   37    30    31 1
   38    41    42 1
   39    41    43 1
   40    41    44 1
   41    38    39 1
   42    38    40 1
   43    38    41 1
   44    37    38 1
   45    67    68 1
   46    67    69 1
   47    67    70 1
   48    57    58 1
   49    56    57 1
   50    56    59 1
   51    55    56 1
   52    54    55 1
   53    54    60 1
   54    53    54 1
   55    53    57 1
   56    52    53 1
   57    52    61 1
   58    52    62 1
   59    51    52 1
   60    51    63 1
   61    51    64 1
   62    50    51 1
   63    50    65 1
   64    49    50 1
   65    48    49 1
   66    48    66 1
   67    48    67 1
   68    45    46 1
   69    45    47 1
   70    45    48 1
   71    44    45 1
   72    76    77 1
   73    76    78 1
   74    76    79 1
   75    75    76 1
   76    73    74 1
   77    73    75 1
   78    72    75 1
   79    71    72 1
   80    70    71 1
   81    70    73 1
   82   118   119 1
   83   118   120 1
   84   118   121 1
   85   109   110 1
   86   109   111 1
   87   109   112 1
   88   105   106 1
   89   105   107 1
   90   105   108 1
   91   101   102 1
   92   101   103 1
   93   101   104 1
   94    97    98 1
   95    97    99 1
   96    97   100 1
   97    94    95 1
   98    94    96 1
   99    93    94 1
  100    93    97 1
  101    93   101 1
  102    90    91 1
  103    90    92 1
  104    89    90 1
  105    89    93 1
  106    88    89 1
  107    88   105 1
  108    88   109 1
  109    87    88 1
  110    87   113 1
  111    87   114 1
  112    86    87 1
  113    86   115 1
  114    86    94 1
  115    85    86 1
  116    85   116 1
  117    84    85 1
  118    83    84 1
  119    83   117 1
  120    83   118 1
  121    80    81 1
  122    80    82 1
  123    80    83 1
  124    79    80 1
  125   132   133 1
  126   131   132 1
  127   131   134 1
  128   130   131 1
  129   130   135 1
  130   129   130 1
  131   129   136 1
  132   128   129 1
  133   127   128 1
  134   127   132 1
  135   125   126 1
  136   125   127 1
  137   124   125 1
  138   124   138 1
  139   123   124 1
  140   123   128 1
  141   122   123 1
  142   122   137 1
  143   121   122 1
  144   121   138 1
@<TRIPOS>SUBSTRUCTURE
      1  XJL              1 ****               0 ****  **** 
      2  JLK             14 ****               0 ****  **** 
      3  LKK             23 ****               0 ****  **** 
      4  KKK             30 ****               0 ****  **** 
      5  KKI             37 ****               0 ****  **** 
      6  KIL             44 ****               0 ****  **** 
      7  ILT             70 ****               0 ****  **** 
      8  LTP             79 ****               0 ****  **** 
      9  TPX            121 ****               0 ****  **** 
