@<TRIPOS>MOLECULE
XJL
  138   144     9     0     1 
SMALL
USER_CHARGES
@<TRIPOS>ATOM
  1 C1      3.540003    1.419779    0.000002 C     1 XJL    -0.1201 ****
  2 H3      2.546808    1.870918   -0.050009 H     1 XJL     0.0265 ****
  3 H4      3.600006    0.813569    0.906298 H     1 XJL     0.0265 ****
  4 H5      3.673925    0.776066   -0.870618 H     1 XJL     0.0265 ****
  5 C2      4.613271    2.530959    0.019999 C     1 XJL    -0.1024 ****
  6 H6      4.523331    3.114735   -0.899656 H     1 XJL     0.0289 ****
  7 H7      4.400273    3.193080    0.863134 H     1 XJL     0.0289 ****
  8 C3      6.064791    1.994057    0.148969 C     1 XJL    -0.1308 ****
  9 H8      6.149732    1.422294    1.076612 H     1 XJL     0.0431 ****
 10 H9      6.282668    1.325320   -0.687673 H     1 XJL     0.0431 ****
 11 C4      7.106751    3.146897    0.162964 C     1 XJL     0.0378 ****
 12 H10     7.096788    3.633670   -0.815607 H     1 XJL     0.0459 ****
 13 H11     6.797860    3.882755    0.909790 H     1 XJL     0.0459 ****
 14 N1      8.467421    2.680604    0.430391 N     2 JLK     0.0420 ****
 15 N4      8.697581    1.421138    0.624806 N     2 JLK    -0.1663 ****
 16 N7      9.942425    1.198824    0.853204 N     2 JLK    -0.3488 ****
 17 C13     9.580879    3.447476    0.504111 C     2 JLK    -0.1907 ****
 18 H14     9.644120    4.461386    0.383624 H     2 JLK     0.2019 ****
 19 C10    10.618270    2.352558    0.819045 C     2 JLK     0.2462 ****
 20 C15    12.066777    2.226043    1.095126 C     2 JLK     0.1188 ****
 21 H19    12.134104    1.769484    2.088125 H     2 JLK     0.0484 ****
 22 H20    12.447305    1.505154    0.364002 H     2 JLK     0.0484 ****
 23 O1     12.659442    3.529390    1.069454 O     3 LKK    -0.4021 ****
 24 C2     14.076238    3.495645    1.330283 C     3 LKK     0.0879 ****
 25 H4     14.587978    2.888446    0.579230 H     3 LKK     0.0559 ****
 26 H5     14.183628    3.057092    2.324568 H     3 LKK     0.0559 ****
 27 C3     14.763768    4.884712    1.313072 C     3 LKK     0.0928 ****
 28 H6     14.594324    5.363795    0.346516 H     3 LKK     0.0549 ****
 29 H7     14.299902    5.513810    2.074220 H     3 LKK     0.0549 ****
 30 O1     16.165678    4.686467    1.527480 O     4 KKK    -0.4130 ****
 31 C2     16.901149    5.920990    1.529768 C     4 KKK     0.0992 ****
 32 H4     16.535431    6.576332    2.324391 H     4 KKK     0.0547 ****
 33 H5     16.734878    6.367390    0.548258 H     4 KKK     0.0547 ****
 34 C3     18.430662    5.768608    1.758432 C     4 KKK     0.0951 ****
 35 H6     18.609091    5.280029    2.719735 H     4 KKK     0.0547 ****
 36 H7     18.836574    5.119719    0.980961 H     4 KKK     0.0547 ****
 37 O13    19.010635    7.077896    1.754031 O     5 KKT    -0.4194 ****
 38 C9     20.412860    7.050021    1.956211 C     5 KKT     0.1312 ****
 39 H48    20.889305    6.466699    1.154502 H     5 KKT     0.0395 ****
 40 H49    20.634667    6.584701    2.927951 H     5 KKT     0.0395 ****
 41 C15    20.944517    8.486674    1.936417 C     5 KKT     0.1281 ****
 42 H43    20.467952    9.068965    2.738802 H     5 KKT     0.0406 ****
 43 H44    20.721884    8.950209    0.962882 H     5 KKT     0.0406 ****
 44 O3     22.361209    8.436318    2.139083 O     6 KTL    -0.3851 ****
 45 C13    22.953521    9.720280    2.137881 C     6 KTL     0.1052 ****
 46 H22    22.516511   10.344943    2.955648 H     6 KTL     0.0521 ****
 47 H23    22.777161   10.235193    1.167040 H     6 KTL     0.0521 ****
 48 C11    24.482601    9.611286    2.360225 C     6 KTL     0.1679 ****
 49 O2     24.877849    9.228993    3.644452 O     6 KTL    -0.4021 ****
 50 C10    24.475814    8.131700    4.338137 C     6 KTL     0.7269 ****
 51 C5     25.515624    7.175061    4.901233 C     6 KTL    -0.0587 ****
 52 C4     24.851975    5.950706    5.544413 C     6 KTL    -0.0680 ****
 53 C1     25.886492    4.945425    6.135738 C     6 KTL     0.2020 ****
 54 N      27.283747    5.415725    6.064502 N     6 KTL     0.0396 ****
 55 O      27.996767    4.930473    8.063367 O     6 KTL    -0.1099 ****
 56 LP     28.095472    5.271339    8.340076 L     6 KTL    -0.1024 ****
 57 LP     28.046344    4.505354    8.202350 L     6 KTL    -0.1024 ****
 58 C2     27.596003    6.833770    6.323863 C     6 KTL     0.2020 ****
 59 C3     26.396183    7.777201    6.011239 C     6 KTL    -0.0680 ****
 60 H3     26.775273    8.792656    5.758430 H     6 KTL     0.0257 ****
 61 H4     25.756512    7.912835    6.913137 H     6 KTL     0.0257 ****
 62 C6     28.773917    7.198374    5.397932 C     6 KTL    -0.0829 ****
 63 H5     28.489471    7.111648    4.329545 H     6 KTL     0.0289 ****
 64 H6     29.639820    6.525328    5.581680 H     6 KTL     0.0289 ****
 65 H7     29.112166    8.241854    5.586365 H     6 KTL     0.0289 ****
 66 C7     28.085942    6.992766    7.777288 C     6 KTL    -0.0829 ****
 67 H8     27.297865    6.732582    8.506852 H     6 KTL     0.0289 ****
 68 H9     28.405403    8.036072    7.981144 H     6 KTL     0.0289 ****
 69 H10    28.947971    6.314291    7.965296 H     6 KTL     0.0289 ****
 70 C8     25.823786    3.650618    5.304387 C     6 KTL    -0.0829 ****
 71 H11    26.064474    3.861563    4.239439 H     6 KTL     0.0289 ****
 72 H12    24.805903    3.202617    5.348863 H     6 KTL     0.0289 ****
 73 H13    26.547805    2.898990    5.685402 H     6 KTL     0.0289 ****
 74 C9     25.532433    4.586541    7.591940 C     6 KTL    -0.0829 ****
 75 H14    25.517388    5.489791    8.231755 H     6 KTL     0.0289 ****
 76 H15    26.275880    3.872121    8.005716 H     6 KTL     0.0289 ****
 77 H16    24.523588    4.124853    7.650231 H     6 KTL     0.0289 ****
 78 H1     24.194093    6.325446    6.364302 H     6 KTL     0.0257 ****
 79 H2     24.156452    5.455370    4.830509 H     6 KTL     0.0257 ****
 80 H17    26.141052    6.862191    4.037941 H     6 KTL     0.0363 ****
 81 O1     23.283665    7.886860    4.458813 O     6 KTL    -0.5046 ****
 82 H21    24.879217    8.874652    1.626171 H     6 KTL     0.1023 ****
 83 C12    25.139228   10.959767    2.052978 C     6 KTL    -0.1193 ****
 84 H18    24.766683   11.739018    2.751762 H     6 KTL     0.0582 ****
 85 H19    24.912757   11.274029    1.010627 H     6 KTL     0.0582 ****
 86 N1     26.593568   10.893423    2.186910 N     7 TLI     0.0420 ****
 87 N4     27.067241    9.738849    2.532766 N     7 TLI    -0.1663 ****
 88 N7     28.347672    9.766397    2.637475 N     7 TLI    -0.3488 ****
 89 C13    27.362433   11.984063    1.957414 C     7 TLI    -0.1907 ****
 90 H14    27.047440   12.917337    1.681177 H     7 TLI     0.2019 ****
 91 C10    28.795097   10.994559    2.353812 C     7 TLI     0.2462 ****
 92 C15    30.263010   11.142728    2.470761 C     7 TLI     0.1188 ****
 93 H19    30.501051   10.867559    3.503545 H     7 TLI     0.0484 ****
 94 H20    30.692509   10.382678    1.809793 H     7 TLI     0.0484 ****
 95 O1     30.615931   12.501714    2.189286 O     8 LIP    -0.4130 ****
 96 C2     32.035258   12.732870    2.281800 C     8 LIP     0.1213 ****
 97 H8     32.565975   12.096816    1.565700 H     8 LIP     0.0497 ****
 98 H9     32.350097   12.491235    3.301273 H     8 LIP     0.0497 ****
 99 C3     32.418603   14.211574    1.975458 C     8 LIP     0.1290 ****
100 O5     31.644318   14.692348    0.851560 O     8 LIP    -0.4403 ****
101 C6     30.407130   15.265221    0.917956 C     8 LIP     0.6495 ****
102 O7     29.834245   15.422671    2.026818 O     8 LIP    -0.5285 ****
103 C8     29.686252   15.687199   -0.300157 C     8 LIP    -0.1475 ****
104 C9     30.326043   16.905248   -1.020458 C     8 LIP     0.0373 ****
105 N10    29.429509   17.572051   -1.930447 N     8 LIP    -0.2101 ****
106 C12    28.594988   17.003292   -2.829330 C     8 LIP     0.3920 ****
107 H14    28.477141   16.000367   -2.979980 H     8 LIP     0.0640 ****
108 N15    27.914111   17.941464   -3.507480 N     8 LIP    -0.6696 ****
109 C18    28.323858   19.128507   -3.042770 C     8 LIP     0.2899 ****
110 H20    27.994345   20.041172   -3.363624 H     8 LIP     0.0411 ****
111 C21    29.273186   18.903386   -2.056937 C     8 LIP    -0.2588 ****
112 H22    29.765028   19.630487   -1.531632 H     8 LIP     0.1758 ****
113 H15    30.675091   17.620551   -0.268439 H     8 LIP     0.0886 ****
114 H16    31.200227   16.567210   -1.582759 H     8 LIP     0.0886 ****
115 H13    29.648937   14.836449   -0.985344 H     8 LIP     0.0886 ****
116 H6     28.655058   15.941254   -0.037608 H     8 LIP     0.0886 ****
117 H10    32.160655   14.815218    2.853121 H     8 LIP     0.1086 ****
118 C1     33.966367   14.342455    1.784353 C     8 LIP     0.0343 ****
119 H11    34.414557   14.318980    2.783152 H     8 LIP     0.0856 ****
120 H12    34.346148   13.470556    1.245643 H     8 LIP     0.0856 ****
121 N2     34.322323   15.591699    1.113436 N     9 IPX     0.5744 ****
122 C9     35.626350   15.876116    0.862866 C     9 IPX    -0.2701 ****
123 C8     35.600571   17.104365    0.232072 C     9 IPX    -0.3358 ****
124 N7     34.285671   17.482274    0.143385 N     9 IPX     0.4827 ****
125 Cu21   33.962514   19.290367   -0.764784 C     9 IPX    -0.0602 ****
126 I22    32.880751   21.277453   -1.704879 I     9 IPX    -0.4374 ****
127 N15    36.172757   19.120558   -0.853433 N     9 IPX    -0.1975 ****
128 C10    36.644991   17.984670   -0.304651 C     9 IPX     0.4577 ****
129 C11    38.011052   17.690776   -0.260961 C     9 IPX    -0.2243 ****
130 C12    38.904298   18.611509   -0.806486 C     9 IPX    -0.1178 ****
131 C13    38.412155   19.786986   -1.374002 C     9 IPX    -0.1056 ****
132 C14    37.033299   19.998600   -1.374475 C     9 IPX     0.0182 ****
133 H19    36.586338   20.893045   -1.800813 H     9 IPX     0.1229 ****
134 H18    39.078356   20.524966   -1.808499 H     9 IPX     0.1352 ****
135 H17    39.971447   18.410995   -0.786951 H     9 IPX     0.1492 ****
136 H16    38.365699   16.768439    0.187084 H     9 IPX     0.1597 ****
137 H20    36.428719   15.211701    1.140068 H     9 IPX     0.2051 ****
138 N6     33.288909   16.385287    0.787977 N     9 IPX    -0.5563 ****
@<TRIPOS>BOND
    1    11    12 1
    2    11    13 1
    3    11    14 1
    4     8     9 1
    5     8    10 1
    6     8    11 1
    7     5     6 1
    8     5     7 1
    9     5     8 1
   10     1     2 1
   11     1     3 1
   12     1     4 1
   13     1     5 1
   14    20    21 1
   15    20    22 1
   16    20    23 1
   17    19    20 1
   18    17    18 1
   19    17    19 1
   20    16    19 1
   21    15    16 1
   22    14    15 1
   23    14    17 1
   24    27    28 1
   25    27    29 1
   26    27    30 1
   27    24    25 1
   28    24    26 1
   29    24    27 1
   30    23    24 1
   31    34    35 1
   32    34    36 1
   33    34    37 1
   34    31    32 1
   35    31    33 1
   36    31    34 1
   37    30    31 1
   38    41    42 1
   39    41    43 1
   40    41    44 1
   41    38    39 1
   42    38    40 1
   43    38    41 1
   44    37    38 1
   45    83    84 1
   46    83    85 1
   47    83    86 1
   48    74    75 1
   49    74    76 1
   50    74    77 1
   51    70    71 1
   52    70    72 1
   53    70    73 1
   54    66    67 1
   55    66    68 1
   56    66    69 1
   57    62    63 1
   58    62    64 1
   59    62    65 1
   60    59    60 1
   61    59    61 1
   62    58    59 1
   63    58    62 1
   64    58    66 1
   65    55    56 1
   66    55    57 1
   67    54    55 1
   68    54    58 1
   69    53    54 1
   70    53    70 1
   71    53    74 1
   72    52    53 1
   73    52    78 1
   74    52    79 1
   75    51    52 1
   76    51    80 1
   77    51    59 1
   78    50    51 1
   79    50    81 1
   80    49    50 1
   81    48    49 1
   82    48    82 1
   83    48    83 1
   84    45    46 1
   85    45    47 1
   86    45    48 1
   87    44    45 1
   88    92    93 1
   89    92    94 1
   90    92    95 1
   91    91    92 1
   92    89    90 1
   93    89    91 1
   94    88    91 1
   95    87    88 1
   96    86    87 1
   97    86    89 1
   98   118   119 1
   99   118   120 1
  100   118   121 1
  101   111   112 1
  102   109   110 1
  103   109   111 1
  104   108   109 1
  105   106   107 1
  106   106   108 1
  107   105   106 1
  108   105   111 1
  109   104   105 1
  110   104   113 1
  111   104   114 1
  112   103   104 1
  113   103   115 1
  114   103   116 1
  115   101   102 1
  116   101   103 1
  117   100   101 1
  118    99   100 1
  119    99   117 1
  120    99   118 1
  121    96    97 1
  122    96    98 1
  123    96    99 1
  124    95    96 1
  125   132   133 1
  126   131   132 1
  127   131   134 1
  128   130   131 1
  129   130   135 1
  130   129   130 1
  131   129   136 1
  132   128   129 1
  133   127   128 1
  134   127   132 1
  135   125   126 1
  136   125   127 1
  137   124   125 1
  138   124   138 1
  139   123   124 1
  140   123   128 1
  141   122   123 1
  142   122   137 1
  143   121   122 1
  144   121   138 1
@<TRIPOS>SUBSTRUCTURE
      1  XJL              1 ****               0 ****  **** 
      2  JLK             14 ****               0 ****  **** 
      3  LKK             23 ****               0 ****  **** 
      4  KKK             30 ****               0 ****  **** 
      5  KKT             37 ****               0 ****  **** 
      6  KTL             44 ****               0 ****  **** 
      7  TLI             86 ****               0 ****  **** 
      8  LIP             95 ****               0 ****  **** 
      9  IPX            121 ****               0 ****  **** 
