@<TRIPOS>MOLECULE
XJL
  159   165    12     0     1 
SMALL
USER_CHARGES
@<TRIPOS>ATOM
  1 C1      3.540003    1.419779    0.000002 C     1 XJL    -0.1201 ****
  2 H3      2.546808    1.870918   -0.050009 H     1 XJL     0.0265 ****
  3 H4      3.600006    0.813569    0.906298 H     1 XJL     0.0265 ****
  4 H5      3.673925    0.776066   -0.870618 H     1 XJL     0.0265 ****
  5 C2      4.613271    2.530959    0.019999 C     1 XJL    -0.1024 ****
  6 H6      4.523331    3.114735   -0.899656 H     1 XJL     0.0289 ****
  7 H7      4.400273    3.193080    0.863134 H     1 XJL     0.0289 ****
  8 C3      6.064791    1.994057    0.148969 C     1 XJL    -0.1308 ****
  9 H8      6.149732    1.422294    1.076612 H     1 XJL     0.0431 ****
 10 H9      6.282668    1.325320   -0.687673 H     1 XJL     0.0431 ****
 11 C4      7.106751    3.146897    0.162964 C     1 XJL     0.0378 ****
 12 H10     7.096788    3.633670   -0.815607 H     1 XJL     0.0459 ****
 13 H11     6.797860    3.882755    0.909790 H     1 XJL     0.0459 ****
 14 N1      8.467421    2.680604    0.430391 N     2 JLK     0.0420 ****
 15 N4      8.697581    1.421138    0.624806 N     2 JLK    -0.1663 ****
 16 N7      9.942425    1.198824    0.853204 N     2 JLK    -0.3488 ****
 17 C13     9.580879    3.447476    0.504111 C     2 JLK    -0.1907 ****
 18 H14     9.644120    4.461386    0.383624 H     2 JLK     0.2019 ****
 19 C10    10.618270    2.352558    0.819045 C     2 JLK     0.2462 ****
 20 C15    12.066777    2.226043    1.095126 C     2 JLK     0.1188 ****
 21 H19    12.134104    1.769484    2.088125 H     2 JLK     0.0484 ****
 22 H20    12.447305    1.505154    0.364002 H     2 JLK     0.0484 ****
 23 O1     12.659442    3.529390    1.069454 O     3 KKK    -0.4130 ****
 24 C2     14.072305    3.495738    1.329559 C     3 KKK     0.0992 ****
 25 H4     14.580002    2.887705    0.576439 H     3 KKK     0.0547 ****
 26 H5     14.180921    3.057705    2.322841 H     3 KKK     0.0547 ****
 27 C3     14.771526    4.883464    1.314609 C     3 KKK     0.0951 ****
 28 H6     14.630077    5.352920    0.337751 H     3 KKK     0.0547 ****
 29 H7     14.293018    5.523099    2.057696 H     3 KKK     0.0547 ****
 30 O1     16.166038    4.678282    1.567318 O     4 KKK    -0.4130 ****
 31 C2     16.909803    5.907805    1.574854 C     4 KKK     0.0992 ****
 32 H4     16.528340    6.574516    2.352435 H     4 KKK     0.0547 ****
 33 H5     16.771961    6.344188    0.584475 H     4 KKK     0.0547 ****
 34 C3     18.431824    5.747789    1.844596 C     4 KKK     0.0951 ****
 35 H6     18.582045    5.268921    2.815559 H     4 KKK     0.0547 ****
 36 H7     18.853070    5.087457    1.085126 H     4 KKK     0.0547 ****
 37 O1     19.020841    7.053035    1.840601 O     5 KKK    -0.4130 ****
 38 C2     20.436879    7.017575    2.082567 C     5 KKK     0.0992 ****
 39 H4     20.936798    6.427803    1.309974 H     5 KKK     0.0547 ****
 40 H5     20.558817    6.557940    3.064477 H     5 KKK     0.0547 ****
 41 C3     21.132362    8.407239    2.089858 C     5 KKK     0.0951 ****
 42 H6     20.977715    8.897833    1.125467 H     5 KKK     0.0547 ****
 43 H7     20.661426    9.028908    2.852766 H     5 KKK     0.0547 ****
 44 O1     22.530391    8.200403    2.320848 O     6 KKK    -0.4130 ****
 45 C2     23.271090    9.431529    2.346561 C     6 KKK     0.0992 ****
 46 H4     22.897549   10.079774    3.143364 H     6 KKK     0.0547 ****
 47 H5     23.119969    9.889369    1.367875 H     6 KKK     0.0547 ****
 48 C3     24.796716    9.269827    2.594019 C     6 KKK     0.0951 ****
 49 H6     24.960084    8.769979    3.552201 H     6 KKK     0.0547 ****
 50 H7     25.210244    8.627669    1.814976 H     6 KKK     0.0547 ****
 51 O1     25.382346   10.576482    2.611781 O     7 KKK    -0.4130 ****
 52 C2     26.801340   10.539623    2.835535 C     7 KKK     0.0992 ****
 53 H4     27.293197    9.968518    2.043976 H     7 KKK     0.0547 ****
 54 H5     26.936514   10.058681    3.805434 H     7 KKK     0.0547 ****
 55 C3     27.493354   11.930721    2.865150 C     7 KKK     0.0951 ****
 56 H6     27.325612   12.442135    1.913852 H     7 KKK     0.0547 ****
 57 H7     27.030279   12.534011    3.647379 H     7 KKK     0.0547 ****
 58 O13    28.894638   11.722723    3.074347 O     8 KKT    -0.4194 ****
 59 C9     29.622222   12.937890    3.117693 C     8 KKT     0.1312 ****
 60 H48    29.246770   13.563098    3.941192 H     8 KKT     0.0395 ****
 61 H49    29.498004   13.474533    2.165545 H     8 KKT     0.0395 ****
 62 C15    31.103741   12.620016    3.343704 C     8 KKT     0.1281 ****
 63 H43    31.478369   11.995326    2.519437 H     8 KKT     0.0406 ****
 64 H44    31.225744   12.083436    4.297328 H     8 KKT     0.0406 ****
 65 O3     31.819852   13.859333    3.387305 O     9 KTL    -0.3851 ****
 66 C13    33.206605   13.675495    3.593499 C     9 KTL     0.1052 ****
 67 H22    33.639709   13.063196    2.764382 H     9 KTL     0.0521 ****
 68 H23    33.396107   13.150827    4.556609 H     9 KTL     0.0521 ****
 69 C11    33.933996   15.042523    3.632686 C     9 KTL     0.1679 ****
 70 O2     34.018481   15.714060    2.410594 O     9 KTL    -0.4021 ****
 71 C10    32.996979   16.032241    1.572634 C     9 KTL     0.7269 ****
 72 C5     32.812602   17.474114    1.124920 C     9 KTL    -0.0587 ****
 73 C4     31.541731   17.634446    0.280919 C     9 KTL    -0.0680 ****
 74 C1     31.318094   19.100690   -0.199286 C     9 KTL     0.2020 ****
 75 N      32.419921   20.018171    0.151116 N     9 KTL     0.0396 ****
 76 O      32.694194   21.087364   -1.725298 O     9 KTL    -0.1099 ****
 77 LP     32.692448   21.537203   -1.713355 L     9 KTL    -0.1024 ****
 78 LP     32.751356   20.872204   -2.116371 L     9 KTL    -0.1024 ****
 79 C2     33.817678   19.555335    0.063471 C     9 KTL     0.2020 ****
 80 C3     33.948736   18.012523    0.236445 C     9 KTL    -0.0680 ****
 81 H3     34.959590   17.765281    0.631178 H     9 KTL     0.0257 ****
 82 H4     33.878737   17.498406   -0.749344 H     9 KTL     0.0257 ****
 83 C6     34.581856   20.253836    1.206228 C     9 KTL    -0.0829 ****
 84 H5     34.192824   19.947374    2.198506 H     9 KTL     0.0289 ****
 85 H6     34.487210   21.358679    1.123112 H     9 KTL     0.0289 ****
 86 H7     35.665636   20.004195    1.162984 H     9 KTL     0.0289 ****
 87 C7     34.434317   20.037049   -1.265240 C     9 KTL    -0.0829 ****
 88 H8     33.926858   19.590026   -2.139128 H     9 KTL     0.0289 ****
 89 H9     35.510772   19.773341   -1.326905 H     9 KTL     0.0289 ****
 90 H10    34.333782   21.141968   -1.353643 H     9 KTL     0.0289 ****
 91 C8     30.061229   19.647212    0.502998 C     9 KTL    -0.0829 ****
 92 H11    30.193123   19.624576    1.606917 H     9 KTL     0.0289 ****
 93 H12    29.168462   19.034007    0.246648 H     9 KTL     0.0289 ****
 94 H13    29.858933   20.695418    0.195330 H     9 KTL     0.0289 ****
 95 C9     31.065525   19.148068   -1.718709 C     9 KTL    -0.0829 ****
 96 H14    31.921693   18.723744   -2.277612 H     9 KTL     0.0289 ****
 97 H15    30.909795   20.196330   -2.052199 H     9 KTL     0.0289 ****
 98 H16    30.168042   18.551196   -1.988133 H     9 KTL     0.0289 ****
 99 H1     31.651076   16.969368   -0.608559 H     9 KTL     0.0257 ****
100 H2     30.653613   17.236928    0.821284 H     9 KTL     0.0257 ****
101 H17    32.731910   18.074453    2.056265 H     9 KTL     0.0363 ****
102 O1     32.198396   15.172744    1.227297 O     9 KTL    -0.5046 ****
103 H21    33.399035   15.689192    4.363716 H     9 KTL     0.1023 ****
104 C12    35.359452   14.846029    4.155589 C     9 KTL    -0.1193 ****
105 H18    35.937097   14.193230    3.466750 H     9 KTL     0.0582 ****
106 H19    35.342596   14.378175    5.164238 H     9 KTL     0.0582 ****
107 N1     36.070439   16.118195    4.271936 N    10 TLI     0.0420 ****
108 N4     35.394234   17.166130    3.923220 N    10 TLI    -0.1663 ****
109 N7     36.090621   18.239131    4.045443 N    10 TLI    -0.3488 ****
110 C13    37.348275   16.161211    4.717582 C    10 TLI    -0.1907 ****
111 H14    37.930208   15.371567    5.008007 H    10 TLI     0.2019 ****
112 C10    37.311059   17.933136    4.499240 C    10 TLI     0.2462 ****
113 C15    38.207284   19.101019    4.651651 C    10 TLI     0.1188 ****
114 H19    38.261531   19.556830    3.657509 H    10 TLI     0.0484 ****
115 H20    37.681056   19.795520    5.314808 H    10 TLI     0.0484 ****
116 O1     39.489992   18.646343    5.097243 O    11 LIP    -0.4130 ****
117 C2     40.427433   19.726725    5.271772 C    11 LIP     0.1213 ****
118 H8     40.048941   20.434642    6.016501 H    11 LIP     0.0497 ****
119 H9     40.547230   20.227887    4.306722 H    11 LIP     0.0497 ****
120 C3     41.822788   19.231427    5.756572 C    11 LIP     0.1290 ****
121 O5     41.652572   18.205940    6.763157 O    11 LIP    -0.4403 ****
122 C6     41.512152   16.868669    6.528185 C    11 LIP     0.6495 ****
123 O7     41.527739   16.421078    5.352606 O    11 LIP    -0.5285 ****
124 C8     41.304720   15.909304    7.631869 C    11 LIP    -0.1475 ****
125 C9     42.545765   15.724079    8.546914 C    11 LIP     0.0373 ****
126 N10    42.503864   14.519740    9.337037 N    11 LIP    -0.2101 ****
127 C12    41.453096   14.024716   10.028948 C    11 LIP     0.3920 ****
128 H14    40.522546   14.442135   10.076680 H    11 LIP     0.0640 ****
129 N15    41.787609   12.882211   10.650585 N    11 LIP    -0.6696 ****
130 C18    43.073137   12.645775   10.360005 C    11 LIP     0.2899 ****
131 H20    43.623136   11.850131   10.690060 H    11 LIP     0.0411 ****
132 C21    43.526817   13.668044    9.539695 C    11 LIP    -0.2588 ****
133 H22    44.476030   13.751256    9.167406 H    11 LIP     0.1758 ****
134 H15    43.447893   15.717556    7.926312 H    11 LIP     0.0886 ****
135 H16    42.619278   16.578857    9.224114 H    11 LIP     0.0886 ****
136 H13    40.458779   16.256919    8.230364 H    11 LIP     0.0886 ****
137 H6     41.032148   14.935304    7.214899 H    11 LIP     0.0886 ****
138 H10    42.339497   18.787189    4.898154 H    11 LIP     0.1086 ****
139 C1     42.696342   20.442938    6.223872 C    11 LIP     0.0343 ****
140 H11    43.065277   20.938193    5.319640 H    11 LIP     0.0856 ****
141 H12    42.069715   21.167995    6.749495 H    11 LIP     0.0856 ****
142 N2     43.826042   20.007756    7.043530 N    12 IPX     0.5744 ****
143 C9     44.694704   20.926519    7.538974 C    12 IPX    -0.2701 ****
144 C8     45.617359   20.185800    8.251156 C    12 IPX    -0.3358 ****
145 N7     45.247928   18.870250    8.139402 N    12 IPX     0.4827 ****
146 Cu21   46.463180   17.542223    9.118129 C    12 IPX    -0.0602 ****
147 I22    47.435427   15.477981   10.010397 I    12 IPX    -0.4374 ****
148 N15    47.439007   19.481227    9.576270 N    12 IPX    -0.1975 ****
149 C10    46.810124   20.539563    9.029608 C    12 IPX     0.4577 ****
150 C11    47.269506   21.848746    9.201102 C    12 IPX    -0.2243 ****
151 C12    48.417472   22.053010    9.965097 C    12 IPX    -0.1178 ****
152 C13    49.066568   20.954930   10.529826 C    12 IPX    -0.1056 ****
153 C14    48.538084   19.683260   10.307152 C    12 IPX     0.0182 ****
154 H19    48.995708   18.787354   10.718859 H    12 IPX     0.1229 ****
155 H18    49.961609   21.077117   11.130823 H    12 IPX     0.1352 ****
156 H17    48.798541   23.058745   10.115699 H    12 IPX     0.1492 ****
157 H16    46.744474   22.684151    8.749810 H    12 IPX     0.1597 ****
158 H20    44.589638   21.983278    7.353759 H    12 IPX     0.2051 ****
159 N6     43.913952   18.683044    7.246162 N    12 IPX    -0.5563 ****
@<TRIPOS>BOND
    1    11    12 1
    2    11    13 1
    3    11    14 1
    4     8     9 1
    5     8    10 1
    6     8    11 1
    7     5     6 1
    8     5     7 1
    9     5     8 1
   10     1     2 1
   11     1     3 1
   12     1     4 1
   13     1     5 1
   14    20    21 1
   15    20    22 1
   16    20    23 1
   17    19    20 1
   18    17    18 1
   19    17    19 1
   20    16    19 1
   21    15    16 1
   22    14    15 1
   23    14    17 1
   24    27    28 1
   25    27    29 1
   26    27    30 1
   27    24    25 1
   28    24    26 1
   29    24    27 1
   30    23    24 1
   31    34    35 1
   32    34    36 1
   33    34    37 1
   34    31    32 1
   35    31    33 1
   36    31    34 1
   37    30    31 1
   38    41    42 1
   39    41    43 1
   40    41    44 1
   41    38    39 1
   42    38    40 1
   43    38    41 1
   44    37    38 1
   45    48    49 1
   46    48    50 1
   47    48    51 1
   48    45    46 1
   49    45    47 1
   50    45    48 1
   51    44    45 1
   52    55    56 1
   53    55    57 1
   54    55    58 1
   55    52    53 1
   56    52    54 1
   57    52    55 1
   58    51    52 1
   59    62    63 1
   60    62    64 1
   61    62    65 1
   62    59    60 1
   63    59    61 1
   64    59    62 1
   65    58    59 1
   66   104   105 1
   67   104   106 1
   68   104   107 1
   69    95    96 1
   70    95    97 1
   71    95    98 1
   72    91    92 1
   73    91    93 1
   74    91    94 1
   75    87    88 1
   76    87    89 1
   77    87    90 1
   78    83    84 1
   79    83    85 1
   80    83    86 1
   81    80    81 1
   82    80    82 1
   83    79    80 1
   84    79    83 1
   85    79    87 1
   86    76    77 1
   87    76    78 1
   88    75    76 1
   89    75    79 1
   90    74    75 1
   91    74    91 1
   92    74    95 1
   93    73    74 1
   94    73    99 1
   95    73   100 1
   96    72    73 1
   97    72   101 1
   98    72    80 1
   99    71    72 1
  100    71   102 1
  101    70    71 1
  102    69    70 1
  103    69   103 1
  104    69   104 1
  105    66    67 1
  106    66    68 1
  107    66    69 1
  108    65    66 1
  109   113   114 1
  110   113   115 1
  111   113   116 1
  112   112   113 1
  113   110   111 1
  114   110   112 1
  115   109   112 1
  116   108   109 1
  117   107   108 1
  118   107   110 1
  119   139   140 1
  120   139   141 1
  121   139   142 1
  122   132   133 1
  123   130   131 1
  124   130   132 1
  125   129   130 1
  126   127   128 1
  127   127   129 1
  128   126   127 1
  129   126   132 1
  130   125   126 1
  131   125   134 1
  132   125   135 1
  133   124   125 1
  134   124   136 1
  135   124   137 1
  136   122   123 1
  137   122   124 1
  138   121   122 1
  139   120   121 1
  140   120   138 1
  141   120   139 1
  142   117   118 1
  143   117   119 1
  144   117   120 1
  145   116   117 1
  146   153   154 1
  147   152   153 1
  148   152   155 1
  149   151   152 1
  150   151   156 1
  151   150   151 1
  152   150   157 1
  153   149   150 1
  154   148   149 1
  155   148   153 1
  156   146   147 1
  157   146   148 1
  158   145   146 1
  159   145   159 1
  160   144   145 1
  161   144   149 1
  162   143   144 1
  163   143   158 1
  164   142   143 1
  165   142   159 1
@<TRIPOS>SUBSTRUCTURE
      1  XJL              1 ****               0 ****  **** 
      2  JLK             14 ****               0 ****  **** 
      3  KKK             23 ****               0 ****  **** 
      4  KKK             30 ****               0 ****  **** 
      5  KKK             37 ****               0 ****  **** 
      6  KKK             44 ****               0 ****  **** 
      7  KKK             51 ****               0 ****  **** 
      8  KKT             58 ****               0 ****  **** 
      9  KTL             65 ****               0 ****  **** 
     10  TLI            107 ****               0 ****  **** 
     11  LIP            116 ****               0 ****  **** 
     12  IPX            142 ****               0 ****  **** 
