@<TRIPOS>MOLECULE
XJL
  201   207    18     0     1 
SMALL
USER_CHARGES
@<TRIPOS>ATOM
  1 C1      3.540003    1.419779    0.000002 C     1 XJL    -0.1201 ****
  2 H3      2.546808    1.870918   -0.050009 H     1 XJL     0.0265 ****
  3 H4      3.600006    0.813569    0.906298 H     1 XJL     0.0265 ****
  4 H5      3.673925    0.776066   -0.870618 H     1 XJL     0.0265 ****
  5 C2      4.613271    2.530959    0.019999 C     1 XJL    -0.1024 ****
  6 H6      4.523331    3.114735   -0.899656 H     1 XJL     0.0289 ****
  7 H7      4.400273    3.193080    0.863134 H     1 XJL     0.0289 ****
  8 C3      6.064791    1.994057    0.148969 C     1 XJL    -0.1308 ****
  9 H8      6.149732    1.422294    1.076612 H     1 XJL     0.0431 ****
 10 H9      6.282668    1.325320   -0.687673 H     1 XJL     0.0431 ****
 11 C4      7.106751    3.146897    0.162964 C     1 XJL     0.0378 ****
 12 H10     7.096788    3.633670   -0.815607 H     1 XJL     0.0459 ****
 13 H11     6.797860    3.882755    0.909790 H     1 XJL     0.0459 ****
 14 N1      8.467421    2.680604    0.430391 N     2 JLK     0.0420 ****
 15 N4      8.697581    1.421138    0.624806 N     2 JLK    -0.1663 ****
 16 N7      9.942425    1.198824    0.853204 N     2 JLK    -0.3488 ****
 17 C13     9.580879    3.447476    0.504111 C     2 JLK    -0.1907 ****
 18 H14     9.644120    4.461386    0.383624 H     2 JLK     0.2019 ****
 19 C10    10.618270    2.352558    0.819045 C     2 JLK     0.2462 ****
 20 C15    12.066777    2.226043    1.095126 C     2 JLK     0.1188 ****
 21 H19    12.134104    1.769484    2.088125 H     2 JLK     0.0484 ****
 22 H20    12.447305    1.505154    0.364002 H     2 JLK     0.0484 ****
 23 O1     12.659442    3.529390    1.069454 O     3 LKK    -0.4021 ****
 24 C2     14.076238    3.495645    1.330283 C     3 LKK     0.0879 ****
 25 H4     14.587978    2.888446    0.579230 H     3 LKK     0.0559 ****
 26 H5     14.183628    3.057092    2.324568 H     3 LKK     0.0559 ****
 27 C3     14.763768    4.884712    1.313072 C     3 LKK     0.0928 ****
 28 H6     14.594324    5.363795    0.346516 H     3 LKK     0.0549 ****
 29 H7     14.299902    5.513810    2.074220 H     3 LKK     0.0549 ****
 30 O1     16.165678    4.686467    1.527480 O     4 KKK    -0.4130 ****
 31 C2     16.901149    5.920990    1.529768 C     4 KKK     0.0992 ****
 32 H4     16.535431    6.576332    2.324391 H     4 KKK     0.0547 ****
 33 H5     16.734878    6.367390    0.548258 H     4 KKK     0.0547 ****
 34 C3     18.430662    5.768608    1.758432 C     4 KKK     0.0951 ****
 35 H6     18.609091    5.280029    2.719735 H     4 KKK     0.0547 ****
 36 H7     18.836574    5.119719    0.980961 H     4 KKK     0.0547 ****
 37 O1     19.010635    7.077896    1.754031 O     5 KKK    -0.4130 ****
 38 C2     20.432651    7.049628    1.959064 C     5 KKK     0.0992 ****
 39 H4     20.916399    6.471989    1.167249 H     5 KKK     0.0547 ****
 40 H5     20.582962    6.579961    2.932255 H     5 KKK     0.0547 ****
 41 C3     21.118780    8.443944    1.964160 C     5 KKK     0.0951 ****
 42 H6     20.936018    8.944144    1.009672 H     5 KKK     0.0547 ****
 43 H7     20.663543    9.053787    2.745908 H     5 KKK     0.0547 ****
 44 O1     22.523658    8.244312    2.156748 O     6 KKK    -0.4130 ****
 45 C2     23.256522    9.480214    2.177303 C     6 KKK     0.0992 ****
 46 H4     22.899341   10.116934    2.990727 H     6 KKK     0.0547 ****
 47 H5     23.077134    9.947846    1.208065 H     6 KKK     0.0547 ****
 48 C3     24.789073    9.326419    2.383580 C     6 KKK     0.0951 ****
 49 H6     24.980456    8.817095    3.331531 H     6 KKK     0.0547 ****
 50 H7     25.186644    8.695867    1.586948 H     6 KKK     0.0547 ****
 51 O1     25.366213   10.636850    2.401030 O     7 KKK    -0.4130 ****
 52 C2     26.790724   10.607406    2.587767 C     7 KKK     0.0992 ****
 53 H4     27.265798   10.048588    1.777411 H     7 KKK     0.0547 ****
 54 H5     26.954098   10.116661    3.548370 H     7 KKK     0.0547 ****
 55 C3     27.473952   12.002885    2.615282 C     7 KKK     0.0951 ****
 56 H6     27.278298   12.523665    1.674455 H     7 KKK     0.0547 ****
 57 H7     27.027194   12.594190    3.415935 H     7 KKK     0.0547 ****
 58 O1     28.881528   11.802355    2.785990 O     8 KKK    -0.4130 ****
 59 C2     29.612011   13.039227    2.824869 C     8 KKK     0.0992 ****
 60 H4     29.263639   13.656932    3.656570 H     8 KKK     0.0547 ****
 61 H5     29.419615   13.527782    1.868533 H     8 KKK     0.0547 ****
 62 C3     31.147325   12.884521    3.008697 C     8 KKK     0.0951 ****
 63 H6     31.351537   12.354785    3.942681 H     8 KKK     0.0547 ****
 64 H7     31.536279   12.272706    2.193420 H     8 KKK     0.0547 ****
 65 O1     31.721901   14.195604    3.048052 O     9 KKK    -0.4130 ****
 66 C2     33.148681   14.165397    3.216442 C     9 KKK     0.0992 ****
 67 H4     33.614812   13.625785    2.388076 H     9 KKK     0.0547 ****
 68 H5     33.325006   13.653887    4.163832 H     9 KKK     0.0547 ****
 69 C3     33.829284   15.561534    3.266430 C     9 KKK     0.0951 ****
 70 H6     33.620866   16.102557    2.339876 H     9 KKK     0.0547 ****
 71 H7     33.391279   16.133908    4.085467 H     9 KKK     0.0547 ****
 72 O1     35.239289   15.360598    3.415213 O    10 KKK    -0.4130 ****
 73 C2     35.967616   16.598028    3.472460 C    10 KKK     0.0992 ****
 74 H4     35.628319   17.196339    4.321901 H    10 KKK     0.0547 ****
 75 H5     35.762329   17.107185    2.529646 H    10 KKK     0.0547 ****
 76 C3     37.505415   16.442916    3.633793 C    10 KKK     0.0951 ****
 77 H6     37.722324   15.893110    4.553202 H    10 KKK     0.0547 ****
 78 H7     37.885483   15.850225    2.800398 H    10 KKK     0.0547 ****
 79 O1     38.077699   17.754159    3.695091 O    11 KKK    -0.4130 ****
 80 C2     39.506522   17.723601    3.845094 C    11 KKK     0.0992 ****
 81 H4     39.963446   17.203566    2.999261 H    11 KKK     0.0547 ****
 82 H5     39.695674   17.191654    4.778655 H    11 KKK     0.0547 ****
 83 C3     40.184778   19.119891    3.917597 C    11 KKK     0.0951 ****
 84 H6     39.963732   19.680807    3.005916 H    11 KKK     0.0547 ****
 85 H7     39.755793   19.672952    4.754482 H    11 KKK     0.0547 ****
 86 O1     41.596939   18.919041    4.044421 O    12 KKK    -0.4130 ****
 87 C2     42.323337   20.156616    4.120070 C    12 KKK     0.0992 ****
 88 H4     41.993377   20.735167    4.986703 H    12 KKK     0.0547 ****
 89 H5     42.105287   20.686040    3.191390 H    12 KKK     0.0547 ****
 90 C3     43.863344   20.001602    4.258875 C    12 KKK     0.0951 ****
 91 H6     44.092810   19.432085    5.163112 H    12 KKK     0.0547 ****
 92 H7     44.234260   19.428411    3.407902 H    12 KKK     0.0547 ****
 93 O1     44.433607   21.312514    4.342142 O    13 KKK    -0.4130 ****
 94 C2     45.864245   21.282016    4.473731 C    13 KKK     0.0992 ****
 95 H4     46.311705   20.781921    3.610984 H    13 KKK     0.0547 ****
 96 H5     46.066095   20.729975    5.392854 H    13 KKK     0.0547 ****
 97 C3     46.540435   22.677957    4.568772 C    13 KKK     0.0951 ****
 98 H6     46.306904   23.258400    3.672559 H    13 KKK     0.0547 ****
 99 H7     46.120730   23.211335    5.422960 H    13 KKK     0.0547 ****
100 O13    47.954479   22.477683    4.673621 O    14 KKT    -0.4194 ****
101 C9     48.669090   23.697771    4.766383 C    14 KKT     0.1312 ****
102 H48    48.339181   24.251266    5.657901 H    14 KKT     0.0395 ****
103 H49    48.478645   24.304151    3.868589 H    14 KKT     0.0395 ****
104 C15    50.165552   23.387996    4.874400 C    14 KKT     0.1281 ****
105 H43    50.494585   22.835063    3.982210 H    14 KKT     0.0406 ****
106 H44    50.353879   22.781529    5.773805 H    14 KKT     0.0406 ****
107 O3     50.868447   24.631949    4.970014 O    15 KTL    -0.3851 ****
108 C13    52.267518   24.455751    5.074662 C    15 KTL     0.1052 ****
109 H22    52.654454   23.916515    4.174980 H    15 KTL     0.0521 ****
110 H23    52.523666   23.861545    5.980242 H    15 KTL     0.0521 ****
111 C11    52.979899   25.827544    5.175151 C    15 KTL     0.1679 ****
112 O2     52.979076   26.592685    4.006319 O    15 KTL    -0.4021 ****
113 C10    51.902979   26.957606    3.260847 C    15 KTL     0.7269 ****
114 C5     51.673814   28.426473    2.939360 C    15 KTL    -0.0587 ****
115 C4     50.350327   28.630372    2.191052 C    15 KTL    -0.0680 ****
116 C1     50.079644   30.125390    1.841578 C    15 KTL     0.2020 ****
117 N      51.190621   31.031228    2.193377 N    15 KTL     0.0396 ****
118 O      51.333167   32.246418    0.392732 O    15 KTL    -0.1099 ****
119 LP     51.329423   32.693909    0.440035 L    15 KTL    -0.1024 ****
120 LP     51.365598   32.063046   -0.016930 L    15 KTL    -0.1024 ****
121 C2     52.585354   30.599758    1.983192 C    15 KTL     0.2020 ****
122 C3     52.745117   29.050583    2.026744 C    15 KTL    -0.0680 ****
123 H3     53.781731   28.790403    2.337399 H    15 KTL     0.0257 ****
124 H4     52.618936   28.612974    1.010096 H    15 KTL     0.0257 ****
125 C6     53.412047   31.220565    3.127282 C    15 KTL    -0.0829 ****
126 H5     53.090152   30.832048    4.114864 H    15 KTL     0.0289 ****
127 H6     53.299423   32.326807    3.136694 H    15 KTL     0.0289 ****
128 H7     54.493768   30.992998    2.997427 H    15 KTL     0.0289 ****
129 C7     53.111061   31.192712    0.660392 C    15 KTL    -0.0829 ****
130 H8     52.554618   30.806106   -0.212495 H    15 KTL     0.0289 ****
131 H9     54.184472   30.952421    0.511564 H    15 KTL     0.0289 ****
132 H10    52.992226   32.299341    0.664915 H    15 KTL     0.0289 ****
133 C8     48.863400   30.595193    2.661113 C    15 KTL    -0.0829 ****
134 H11    49.065094   30.489633    3.749562 H    15 KTL     0.0289 ****
135 H12    47.963440   29.988889    2.413655 H    15 KTL     0.0289 ****
136 H13    48.629812   31.660519    2.449361 H    15 KTL     0.0289 ****
137 C9     49.730960   30.285676    0.349128 C    15 KTL    -0.0829 ****
138 H14    50.554975   29.919988   -0.293306 H    15 KTL     0.0289 ****
139 H15    49.542208   31.353821    0.108794 H    15 KTL     0.0289 ****
140 H16    48.825276   29.696584    0.090229 H    15 KTL     0.0289 ****
141 H1     50.410974   28.037813    1.247308 H    15 KTL     0.0257 ****
142 H2     49.502866   28.177683    2.752880 H    15 KTL     0.0257 ****
143 H17    51.645165   28.951738    3.917929 H    15 KTL     0.0363 ****
144 O1     51.094260   26.114204    2.899771 O    15 KTL    -0.5046 ****
145 H21    52.484713   26.406924    5.986248 H    15 KTL     0.1023 ****
146 C12    54.437768   25.614934    5.591536 C    15 KTL    -0.1193 ****
147 H18    54.978290   25.026893    4.819289 H    15 KTL     0.0582 ****
148 H19    54.490201   25.070431    6.559684 H    15 KTL     0.0582 ****
149 N1     55.139767   26.885934    5.762416 N    16 TLI     0.0420 ****
150 N4     54.430658   27.946304    5.539247 N    16 TLI    -0.1663 ****
151 N7     55.120787   29.018066    5.701336 N    16 TLI    -0.3488 ****
152 C13    56.442636   26.915602    6.129795 C    16 TLI    -0.1907 ****
153 H14    57.050962   26.115654    6.320979 H    16 TLI     0.2019 ****
154 C10    56.370973   28.698231    6.053152 C    16 TLI     0.2462 ****
155 C15    57.261326   29.865561    6.240267 C    16 TLI     0.1188 ****
156 H19    57.247266   30.397559    5.283289 H    16 TLI     0.0484 ****
157 H20    56.770003   30.498007    6.987019 H    16 TLI     0.0484 ****
158 O1     58.574873   29.399173    6.568445 O    17 LIP    -0.4130 ****
159 C2     59.508779   30.478251    6.768176 C    17 LIP     0.1213 ****
160 H8     59.169887   31.120225    7.587961 H    17 LIP     0.0497 ****
161 H9     59.561441   31.054300    5.839613 H    17 LIP     0.0497 ****
162 C3     60.937692   29.970210    7.125196 C    17 LIP     0.1290 ****
163 O5     60.843472   28.867432    8.057298 O    17 LIP    -0.4403 ****
164 C6     60.704119   27.550136    7.727850 C    17 LIP     0.6495 ****
165 O7     60.650567   27.194909    6.522234 O    17 LIP    -0.5285 ****
166 C8     60.578126   26.505165    8.764040 C    17 LIP    -0.1475 ****
167 C9     61.876632   26.270474    9.582948 C    17 LIP     0.0373 ****
168 N10    61.898863   25.008231   10.277735 N    17 LIP    -0.2101 ****
169 C12    60.899812   24.443951   10.992849 C    17 LIP     0.3920 ****
170 H14    59.969326   24.840968   11.130744 H    17 LIP     0.0640 ****
171 N15    61.286301   23.262587   11.501428 N    17 LIP    -0.6696 ****
172 C18    62.553557   23.070610   11.113965 C    17 LIP     0.2899 ****
173 H20    63.132592   22.261093   11.346098 H    17 LIP     0.0411 ****
174 C21    62.942472   24.160504   10.349344 C    17 LIP    -0.2588 ****
175 H22    63.865206   24.287909    9.926426 H    17 LIP     0.1758 ****
176 H15    62.737725   26.326806    8.908878 H    17 LIP     0.0886 ****
177 H16    61.982822   27.071551   10.318916 H    17 LIP     0.0886 ****
178 H13    59.767718   26.791499    9.439245 H    17 LIP     0.0886 ****
179 H6     60.291139   25.561860    8.290066 H    17 LIP     0.0886 ****
180 H10    61.404243   29.602156    6.204282 H    17 LIP     0.1086 ****
181 C1     61.824824   31.156359    7.630442 C    17 LIP     0.0343 ****
182 H11    62.130024   31.725954    6.746452 H    17 LIP     0.0856 ****
183 H12    61.224256   31.828214    8.248971 H    17 LIP     0.0856 ****
184 N2     63.009106   30.678007    8.341850 N    18 IPX     0.5744 ****
185 C9     63.896558   31.570068    8.852555 C    18 IPX    -0.2701 ****
186 C8     64.871000   30.791993    9.446041 C    18 IPX    -0.3358 ****
187 N7     64.510647   29.483048    9.255121 N    18 IPX     0.4827 ****
188 Cu21   65.800803   28.103779   10.049801 C    18 IPX    -0.0602 ****
189 I22    66.851595   25.993236   10.716092 I    18 IPX    -0.4374 ****
190 N15    66.780911   30.017553   10.596360 N    18 IPX    -0.1975 ****
191 C10    66.106386   31.104349   10.174105 C    18 IPX     0.4577 ****
192 C11    66.560356   32.403828   10.418380 C    18 IPX    -0.2243 ****
193 C12    67.751869   32.567525   11.123174 C    18 IPX    -0.1178 ****
194 C13    68.448171   31.440050   11.559049 C    18 IPX    -0.1056 ****
195 C14    67.921568   30.180771   11.271071 C    18 IPX     0.0182 ****
196 H19    68.414755   29.263475   11.582364 H    18 IPX     0.1229 ****
197 H18    69.377936   31.530312   12.110969 H    18 IPX     0.1352 ****
198 H17    68.129914   33.564816   11.327844 H    18 IPX     0.1492 ****
199 H16    65.998105   33.262751   10.067166 H    18 IPX     0.1597 ****
200 H20    63.767642   32.636082    8.757272 H    18 IPX     0.2051 ****
201 N6     63.125136   29.343248    8.434616 N    18 IPX    -0.5563 ****
@<TRIPOS>BOND
    1    11    12 1
    2    11    13 1
    3    11    14 1
    4     8     9 1
    5     8    10 1
    6     8    11 1
    7     5     6 1
    8     5     7 1
    9     5     8 1
   10     1     2 1
   11     1     3 1
   12     1     4 1
   13     1     5 1
   14    20    21 1
   15    20    22 1
   16    20    23 1
   17    19    20 1
   18    17    18 1
   19    17    19 1
   20    16    19 1
   21    15    16 1
   22    14    15 1
   23    14    17 1
   24    27    28 1
   25    27    29 1
   26    27    30 1
   27    24    25 1
   28    24    26 1
   29    24    27 1
   30    23    24 1
   31    34    35 1
   32    34    36 1
   33    34    37 1
   34    31    32 1
   35    31    33 1
   36    31    34 1
   37    30    31 1
   38    41    42 1
   39    41    43 1
   40    41    44 1
   41    38    39 1
   42    38    40 1
   43    38    41 1
   44    37    38 1
   45    48    49 1
   46    48    50 1
   47    48    51 1
   48    45    46 1
   49    45    47 1
   50    45    48 1
   51    44    45 1
   52    55    56 1
   53    55    57 1
   54    55    58 1
   55    52    53 1
   56    52    54 1
   57    52    55 1
   58    51    52 1
   59    62    63 1
   60    62    64 1
   61    62    65 1
   62    59    60 1
   63    59    61 1
   64    59    62 1
   65    58    59 1
   66    69    70 1
   67    69    71 1
   68    69    72 1
   69    66    67 1
   70    66    68 1
   71    66    69 1
   72    65    66 1
   73    76    77 1
   74    76    78 1
   75    76    79 1
   76    73    74 1
   77    73    75 1
   78    73    76 1
   79    72    73 1
   80    83    84 1
   81    83    85 1
   82    83    86 1
   83    80    81 1
   84    80    82 1
   85    80    83 1
   86    79    80 1
   87    90    91 1
   88    90    92 1
   89    90    93 1
   90    87    88 1
   91    87    89 1
   92    87    90 1
   93    86    87 1
   94    97    98 1
   95    97    99 1
   96    97   100 1
   97    94    95 1
   98    94    96 1
   99    94    97 1
  100    93    94 1
  101   104   105 1
  102   104   106 1
  103   104   107 1
  104   101   102 1
  105   101   103 1
  106   101   104 1
  107   100   101 1
  108   146   147 1
  109   146   148 1
  110   146   149 1
  111   137   138 1
  112   137   139 1
  113   137   140 1
  114   133   134 1
  115   133   135 1
  116   133   136 1
  117   129   130 1
  118   129   131 1
  119   129   132 1
  120   125   126 1
  121   125   127 1
  122   125   128 1
  123   122   123 1
  124   122   124 1
  125   121   122 1
  126   121   125 1
  127   121   129 1
  128   118   119 1
  129   118   120 1
  130   117   118 1
  131   117   121 1
  132   116   117 1
  133   116   133 1
  134   116   137 1
  135   115   116 1
  136   115   141 1
  137   115   142 1
  138   114   115 1
  139   114   143 1
  140   114   122 1
  141   113   114 1
  142   113   144 1
  143   112   113 1
  144   111   112 1
  145   111   145 1
  146   111   146 1
  147   108   109 1
  148   108   110 1
  149   108   111 1
  150   107   108 1
  151   155   156 1
  152   155   157 1
  153   155   158 1
  154   154   155 1
  155   152   153 1
  156   152   154 1
  157   151   154 1
  158   150   151 1
  159   149   150 1
  160   149   152 1
  161   181   182 1
  162   181   183 1
  163   181   184 1
  164   174   175 1
  165   172   173 1
  166   172   174 1
  167   171   172 1
  168   169   170 1
  169   169   171 1
  170   168   169 1
  171   168   174 1
  172   167   168 1
  173   167   176 1
  174   167   177 1
  175   166   167 1
  176   166   178 1
  177   166   179 1
  178   164   165 1
  179   164   166 1
  180   163   164 1
  181   162   163 1
  182   162   180 1
  183   162   181 1
  184   159   160 1
  185   159   161 1
  186   159   162 1
  187   158   159 1
  188   195   196 1
  189   194   195 1
  190   194   197 1
  191   193   194 1
  192   193   198 1
  193   192   193 1
  194   192   199 1
  195   191   192 1
  196   190   191 1
  197   190   195 1
  198   188   189 1
  199   188   190 1
  200   187   188 1
  201   187   201 1
  202   186   187 1
  203   186   191 1
  204   185   186 1
  205   185   200 1
  206   184   185 1
  207   184   201 1
@<TRIPOS>SUBSTRUCTURE
      1  XJL              1 ****               0 ****  **** 
      2  JLK             14 ****               0 ****  **** 
      3  LKK             23 ****               0 ****  **** 
      4  KKK             30 ****               0 ****  **** 
      5  KKK             37 ****               0 ****  **** 
      6  KKK             44 ****               0 ****  **** 
      7  KKK             51 ****               0 ****  **** 
      8  KKK             58 ****               0 ****  **** 
      9  KKK             65 ****               0 ****  **** 
     10  KKK             72 ****               0 ****  **** 
     11  KKK             79 ****               0 ****  **** 
     12  KKK             86 ****               0 ****  **** 
     13  KKK             93 ****               0 ****  **** 
     14  KKT            100 ****               0 ****  **** 
     15  KTL            107 ****               0 ****  **** 
     16  TLI            149 ****               0 ****  **** 
     17  LIP            158 ****               0 ****  **** 
     18  IPX            184 ****               0 ****  **** 
