@<TRIPOS>MOLECULE
XJL
  180   186    15     0     1 
SMALL
USER_CHARGES
@<TRIPOS>ATOM
  1 C1      3.540003    1.419779    0.000002 C     1 XJL    -0.1201 ****
  2 H3      2.546808    1.870918   -0.050009 H     1 XJL     0.0265 ****
  3 H4      3.600006    0.813569    0.906298 H     1 XJL     0.0265 ****
  4 H5      3.673925    0.776066   -0.870618 H     1 XJL     0.0265 ****
  5 C2      4.613271    2.530959    0.019999 C     1 XJL    -0.1024 ****
  6 H6      4.523331    3.114735   -0.899656 H     1 XJL     0.0289 ****
  7 H7      4.400273    3.193080    0.863134 H     1 XJL     0.0289 ****
  8 C3      6.064791    1.994057    0.148969 C     1 XJL    -0.1308 ****
  9 H8      6.149732    1.422294    1.076612 H     1 XJL     0.0431 ****
 10 H9      6.282668    1.325320   -0.687673 H     1 XJL     0.0431 ****
 11 C4      7.106751    3.146897    0.162964 C     1 XJL     0.0378 ****
 12 H10     7.096788    3.633670   -0.815607 H     1 XJL     0.0459 ****
 13 H11     6.797860    3.882755    0.909790 H     1 XJL     0.0459 ****
 14 N1      8.467421    2.680604    0.430391 N     2 JLK     0.0420 ****
 15 N4      8.697581    1.421138    0.624806 N     2 JLK    -0.1663 ****
 16 N7      9.942425    1.198824    0.853204 N     2 JLK    -0.3488 ****
 17 C13     9.580879    3.447476    0.504111 C     2 JLK    -0.1907 ****
 18 H14     9.644120    4.461386    0.383624 H     2 JLK     0.2019 ****
 19 C10    10.618270    2.352558    0.819045 C     2 JLK     0.2462 ****
 20 C15    12.066777    2.226043    1.095126 C     2 JLK     0.1188 ****
 21 H19    12.134104    1.769484    2.088125 H     2 JLK     0.0484 ****
 22 H20    12.447305    1.505154    0.364002 H     2 JLK     0.0484 ****
 23 O1     12.659442    3.529390    1.069454 O     3 KKK    -0.4130 ****
 24 C2     14.072305    3.495738    1.329559 C     3 KKK     0.0992 ****
 25 H4     14.580002    2.887705    0.576439 H     3 KKK     0.0547 ****
 26 H5     14.180921    3.057705    2.322841 H     3 KKK     0.0547 ****
 27 C3     14.771526    4.883464    1.314609 C     3 KKK     0.0951 ****
 28 H6     14.630077    5.352920    0.337751 H     3 KKK     0.0547 ****
 29 H7     14.293018    5.523099    2.057696 H     3 KKK     0.0547 ****
 30 O1     16.166038    4.678282    1.567318 O     4 KKK    -0.4130 ****
 31 C2     16.909803    5.907805    1.574854 C     4 KKK     0.0992 ****
 32 H4     16.528340    6.574516    2.352435 H     4 KKK     0.0547 ****
 33 H5     16.771961    6.344188    0.584475 H     4 KKK     0.0547 ****
 34 C3     18.431824    5.747789    1.844596 C     4 KKK     0.0951 ****
 35 H6     18.582045    5.268921    2.815559 H     4 KKK     0.0547 ****
 36 H7     18.853070    5.087457    1.085126 H     4 KKK     0.0547 ****
 37 O1     19.020841    7.053035    1.840601 O     5 KKK    -0.4130 ****
 38 C2     20.436879    7.017575    2.082567 C     5 KKK     0.0992 ****
 39 H4     20.936798    6.427803    1.309974 H     5 KKK     0.0547 ****
 40 H5     20.558817    6.557940    3.064477 H     5 KKK     0.0547 ****
 41 C3     21.132362    8.407239    2.089858 C     5 KKK     0.0951 ****
 42 H6     20.977715    8.897833    1.125467 H     5 KKK     0.0547 ****
 43 H7     20.661426    9.028908    2.852766 H     5 KKK     0.0547 ****
 44 O1     22.530391    8.200403    2.320848 O     6 KKK    -0.4130 ****
 45 C2     23.271090    9.431529    2.346561 C     6 KKK     0.0992 ****
 46 H4     22.897549   10.079774    3.143364 H     6 KKK     0.0547 ****
 47 H5     23.119969    9.889369    1.367875 H     6 KKK     0.0547 ****
 48 C3     24.796716    9.269827    2.594019 C     6 KKK     0.0951 ****
 49 H6     24.960084    8.769979    3.552201 H     6 KKK     0.0547 ****
 50 H7     25.210244    8.627669    1.814976 H     6 KKK     0.0547 ****
 51 O1     25.382346   10.576482    2.611781 O     7 KKK    -0.4130 ****
 52 C2     26.801340   10.539623    2.835535 C     7 KKK     0.0992 ****
 53 H4     27.293197    9.968518    2.043976 H     7 KKK     0.0547 ****
 54 H5     26.936514   10.058681    3.805434 H     7 KKK     0.0547 ****
 55 C3     27.493354   11.930721    2.865150 C     7 KKK     0.0951 ****
 56 H6     27.325612   12.442135    1.913852 H     7 KKK     0.0547 ****
 57 H7     27.030279   12.534011    3.647379 H     7 KKK     0.0547 ****
 58 O1     28.894638   11.722723    3.074347 O     8 KKK    -0.4130 ****
 59 C2     29.632491   12.955042    3.118305 C     8 KKK     0.0992 ****
 60 H4     29.267153   13.584421    3.933816 H     8 KKK     0.0547 ****
 61 H5     29.468181   13.434035    2.151947 H     8 KKK     0.0547 ****
 62 C3     31.161450   12.792157    3.343405 C     8 KKK     0.0951 ****
 63 H6     31.337860   12.271653    4.288182 H     8 KKK     0.0547 ****
 64 H7     31.566975   12.168580    2.545293 H     8 KKK     0.0547 ****
 65 O1     31.743958   14.099728    3.382989 O     9 KKK    -0.4130 ****
 66 C2     33.165687   14.061883    3.588470 C     9 KKK     0.0992 ****
 67 H4     33.649202   13.509839    2.778464 H     9 KKK     0.0547 ****
 68 H5     33.314002   13.559943    4.545726 H     9 KKK     0.0547 ****
 69 C3     33.854504   15.453911    3.640474 C     9 KKK     0.0951 ****
 70 H6     33.673776   15.985813    2.702889 H     9 KKK     0.0547 ****
 71 H7     33.399574   16.038421    4.441516 H     9 KKK     0.0547 ****
 72 O1     35.258777   15.245243    3.827822 O    10 KKK    -0.4130 ****
 73 C2     35.994006   16.478341    3.890079 C    10 KKK     0.0992 ****
 74 H4     35.637148   17.088469    4.723773 H    10 KKK     0.0547 ****
 75 H5     35.816606   16.978174    2.936676 H    10 KKK     0.0547 ****
 76 C3     37.526026   16.314780    4.092761 C    10 KKK     0.0951 ****
 77 H6     37.715364   15.773959    5.023520 H    10 KKK     0.0547 ****
 78 H7     37.923267   15.710180    3.276096 H    10 KKK     0.0547 ****
 79 O13    38.105678   17.622774    4.154219 O    11 KKT    -0.4194 ****
 80 C9     39.510098   17.584891    4.338772 C    11 KKT     0.1312 ****
 81 H48    39.977583   17.047154    3.500741 H    11 KKT     0.0395 ****
 82 H49    39.742924   17.066751    5.280751 H    11 KKT     0.0395 ****
 83 C15    40.041241   19.020868    4.392446 C    11 KKT     0.1281 ****
 84 H43    39.573644   19.557538    5.231099 H    11 KKT     0.0406 ****
 85 H44    39.807569   19.537324    3.448587 H    11 KKT     0.0406 ****
 86 O3     41.460136   18.960522    4.576080 O    12 KTL    -0.3851 ****
 87 C13    42.052167   20.243063    4.639194 C    12 KTL     0.1052 ****
 88 H22    41.624288   20.821222    5.495101 H    12 KTL     0.0521 ****
 89 H23    41.864786   20.810706    3.700344 H    12 KTL     0.0521 ****
 90 C11    43.583675   20.123171    4.837969 C    12 KTL     0.1679 ****
 91 O2     43.993438   19.670799    6.094577 O    12 KTL    -0.4021 ****
 92 C10    43.599442   18.536522    6.731022 C    12 KTL     0.7269 ****
 93 C5     44.645703   17.551055    7.228653 C    12 KTL    -0.0587 ****
 94 C4     43.989563   16.292492    7.810592 C    12 KTL    -0.0680 ****
 95 C1     45.030858   15.256894    8.333777 C    12 KTL     0.2020 ****
 96 N      46.427137   15.731531    8.272943 N    12 KTL     0.0396 ****
 97 O      47.162724   15.137115   10.233787 O    12 KTL    -0.1099 ****
 98 LP     47.271969   15.462322   10.525001 L    12 KTL    -0.1024 ****
 99 LP     47.206756   14.704930   10.351165 L    12 KTL    -0.1024 ****
100 C2     46.742042   17.133324    8.606765 C    12 KTL     0.2020 ****
101 C3     45.538607   18.091630    8.360277 C    12 KTL    -0.0680 ****
102 H3     45.914642   19.119809    8.159740 H    12 KTL     0.0257 ****
103 H4     44.909116   18.176695    9.275427 H    12 KTL     0.0257 ****
104 C6     47.909382   17.549492    7.689221 C    12 KTL    -0.0829 ****
105 H5     47.612930   17.521720    6.620939 H    12 KTL     0.0289 ****
106 H6     48.777421   16.868012    7.825739 H    12 KTL     0.0289 ****
107 H7     48.249546   18.581232    7.931231 H    12 KTL     0.0289 ****
108 C7     47.248301   17.212137   10.061157 C    12 KTL    -0.0829 ****
109 H8     46.468542   16.911396   10.784037 H    12 KTL     0.0289 ****
110 H9     47.569851   18.242837   10.318767 H    12 KTL     0.0289 ****
111 H10    48.112515   16.524999   10.201672 H    12 KTL     0.0289 ****
112 C8     44.959019   14.009966    7.432883 C    12 KTL    -0.0829 ****
113 H11    45.187653   14.279642    6.378584 H    12 KTL     0.0289 ****
114 H12    43.941781   13.559376    7.463967 H    12 KTL     0.0289 ****
115 H13    45.687420   13.239008    7.763604 H    12 KTL     0.0289 ****
116 C9     44.693295   14.817789    9.771803 C    12 KTL    -0.0829 ****
117 H14    44.685300   15.684283   10.460697 H    12 KTL     0.0289 ****
118 H15    45.441486   14.082188   10.137072 H    12 KTL     0.0289 ****
119 H16    43.685254   14.352777    9.815822 H    12 KTL     0.0289 ****
120 H1     43.340895   16.620816    8.657286 H    12 KTL     0.0257 ****
121 H2     43.286128   15.836814    7.078263 H    12 KTL     0.0257 ****
122 H17    45.261418   17.286880    6.342410 H    12 KTL     0.0363 ****
123 O1     42.408772   18.284431    6.851374 O    12 KTL    -0.5046 ****
124 H21    43.972126   19.428554    4.059907 H    12 KTL     0.1023 ****
125 C12    44.236557   21.487099    4.598369 C    12 KTL    -0.1193 ****
126 H18    43.871771   22.226237    5.343303 H    12 KTL     0.0582 ****
127 H19    43.998298   21.858310    3.577595 H    12 KTL     0.0582 ****
128 N1     45.692326   21.414620    4.712071 N    13 TLI     0.0420 ****
129 N4     46.170073   20.243075    4.988231 N    13 TLI    -0.1663 ****
130 N7     47.451597   20.265820    5.079902 N    13 TLI    -0.3488 ****
131 C13    46.458361   22.516892    4.534584 C    13 TLI    -0.1907 ****
132 H14    46.140108   23.463755    4.313916 H    13 TLI     0.2019 ****
133 C10    47.895578   21.508140    4.859549 C    13 TLI     0.2462 ****
134 C15    49.364689   21.650796    4.968000 C    13 TLI     0.1188 ****
135 H19    49.614402   21.319155    5.981253 H    13 TLI     0.0484 ****
136 H20    49.786848   20.928784    4.261242 H    13 TLI     0.0484 ****
137 O1     49.714172   23.023544    4.758125 O    14 LIP    -0.4130 ****
138 C2     51.134410   23.250371    4.847314 C    14 LIP     0.1213 ****
139 H8     51.657138   22.655294    4.091229 H    14 LIP     0.0497 ****
140 H9     51.460761   22.953011    5.848267 H    14 LIP     0.0497 ****
141 C3     51.514015   24.744053    4.618887 C    14 LIP     0.1290 ****
142 O5     50.727027   25.285591    3.532058 O    14 LIP    -0.4403 ****
143 C6     49.490564   25.852926    3.643923 C    14 LIP     0.6495 ****
144 O7     48.930183   25.948389    4.766164 O    14 LIP    -0.5285 ****
145 C8     48.755929   26.341007    2.459179 C    14 LIP    -0.1475 ****
146 C9     49.387345   27.597518    1.800162 C    14 LIP     0.0373 ****
147 N10    48.480494   28.312879    0.938559 N    14 LIP    -0.2101 ****
148 C12    47.635998   27.794002    0.019050 C    14 LIP     0.3920 ****
149 H14    47.516640   26.800843   -0.185474 H    14 LIP     0.0640 ****
150 N15    46.947354   28.767677   -0.598508 N    14 LIP    -0.6696 ****
151 C18    47.362100   29.927549   -0.073528 C    14 LIP     0.2899 ****
152 H20    47.028828   30.856288   -0.339718 H    14 LIP     0.0411 ****
153 C21    48.322517   29.649045    0.887619 C    14 LIP    -0.2588 ****
154 H22    48.820117   30.346394    1.446750 H    14 LIP     0.1758 ****
155 H15    49.744717   28.270443    2.586599 H    14 LIP     0.0886 ****
156 H16    50.255197   27.291777    1.210243 H    14 LIP     0.0886 ****
157 H13    48.711047   25.529399    1.728477 H    14 LIP     0.0886 ****
158 H6     47.727714   26.579336    2.746945 H    14 LIP     0.0886 ****
159 H10    51.265865   25.298058    5.531420 H    14 LIP     0.1086 ****
160 C1     53.059504   24.886537    4.417921 C    14 LIP     0.0343 ****
161 H11    53.518924   24.808253    5.408794 H    14 LIP     0.0856 ****
162 H12    53.433345   24.046051    3.827604 H    14 LIP     0.0856 ****
163 N2     53.407652   26.171239    3.813125 N    15 IPX     0.5744 ****
164 C9     54.708722   26.470115    3.564015 C    15 IPX    -0.2701 ****
165 C8     54.675616   27.731330    3.002409 C    15 IPX    -0.3358 ****
166 N7     53.359733   28.112509    2.949533 N    15 IPX     0.4827 ****
167 Cu21   53.026039   29.967774    2.146389 C    15 IPX    -0.0602 ****
168 I22    51.933395   32.002914    1.329791 I    15 IPX    -0.4374 ****
169 N15    55.235173   29.804896    2.023647 N    15 IPX    -0.1975 ****
170 C10    55.713765   28.640791    2.503458 C    15 IPX     0.4577 ****
171 C11    57.080283   28.346026    2.515476 C    15 IPX    -0.2243 ****
172 C12    57.967161   29.296220    2.011673 C    15 IPX    -0.1178 ****
173 C13    57.468444   30.500872    1.515569 C    15 IPX    -0.1056 ****
174 C14    56.089632   30.711084    1.542296 C    15 IPX     0.0182 ****
175 H19    55.637735   31.627366    1.171103 H    15 IPX     0.1229 ****
176 H18    58.129574   31.262273    1.115068 H    15 IPX     0.1352 ****
177 H17    59.034498   29.095787    2.008097 H    15 IPX     0.1492 ****
178 H16    57.440122   27.400620    2.907838 H    15 IPX     0.1597 ****
179 H20    55.514282   25.792038    3.795029 H    15 IPX     0.2051 ****
180 N6     52.370495   26.980773    3.543668 N    15 IPX    -0.5563 ****
@<TRIPOS>BOND
    1    11    12 1
    2    11    13 1
    3    11    14 1
    4     8     9 1
    5     8    10 1
    6     8    11 1
    7     5     6 1
    8     5     7 1
    9     5     8 1
   10     1     2 1
   11     1     3 1
   12     1     4 1
   13     1     5 1
   14    20    21 1
   15    20    22 1
   16    20    23 1
   17    19    20 1
   18    17    18 1
   19    17    19 1
   20    16    19 1
   21    15    16 1
   22    14    15 1
   23    14    17 1
   24    27    28 1
   25    27    29 1
   26    27    30 1
   27    24    25 1
   28    24    26 1
   29    24    27 1
   30    23    24 1
   31    34    35 1
   32    34    36 1
   33    34    37 1
   34    31    32 1
   35    31    33 1
   36    31    34 1
   37    30    31 1
   38    41    42 1
   39    41    43 1
   40    41    44 1
   41    38    39 1
   42    38    40 1
   43    38    41 1
   44    37    38 1
   45    48    49 1
   46    48    50 1
   47    48    51 1
   48    45    46 1
   49    45    47 1
   50    45    48 1
   51    44    45 1
   52    55    56 1
   53    55    57 1
   54    55    58 1
   55    52    53 1
   56    52    54 1
   57    52    55 1
   58    51    52 1
   59    62    63 1
   60    62    64 1
   61    62    65 1
   62    59    60 1
   63    59    61 1
   64    59    62 1
   65    58    59 1
   66    69    70 1
   67    69    71 1
   68    69    72 1
   69    66    67 1
   70    66    68 1
   71    66    69 1
   72    65    66 1
   73    76    77 1
   74    76    78 1
   75    76    79 1
   76    73    74 1
   77    73    75 1
   78    73    76 1
   79    72    73 1
   80    83    84 1
   81    83    85 1
   82    83    86 1
   83    80    81 1
   84    80    82 1
   85    80    83 1
   86    79    80 1
   87   125   126 1
   88   125   127 1
   89   125   128 1
   90   116   117 1
   91   116   118 1
   92   116   119 1
   93   112   113 1
   94   112   114 1
   95   112   115 1
   96   108   109 1
   97   108   110 1
   98   108   111 1
   99   104   105 1
  100   104   106 1
  101   104   107 1
  102   101   102 1
  103   101   103 1
  104   100   101 1
  105   100   104 1
  106   100   108 1
  107    97    98 1
  108    97    99 1
  109    96    97 1
  110    96   100 1
  111    95    96 1
  112    95   112 1
  113    95   116 1
  114    94    95 1
  115    94   120 1
  116    94   121 1
  117    93    94 1
  118    93   122 1
  119    93   101 1
  120    92    93 1
  121    92   123 1
  122    91    92 1
  123    90    91 1
  124    90   124 1
  125    90   125 1
  126    87    88 1
  127    87    89 1
  128    87    90 1
  129    86    87 1
  130   134   135 1
  131   134   136 1
  132   134   137 1
  133   133   134 1
  134   131   132 1
  135   131   133 1
  136   130   133 1
  137   129   130 1
  138   128   129 1
  139   128   131 1
  140   160   161 1
  141   160   162 1
  142   160   163 1
  143   153   154 1
  144   151   152 1
  145   151   153 1
  146   150   151 1
  147   148   149 1
  148   148   150 1
  149   147   148 1
  150   147   153 1
  151   146   147 1
  152   146   155 1
  153   146   156 1
  154   145   146 1
  155   145   157 1
  156   145   158 1
  157   143   144 1
  158   143   145 1
  159   142   143 1
  160   141   142 1
  161   141   159 1
  162   141   160 1
  163   138   139 1
  164   138   140 1
  165   138   141 1
  166   137   138 1
  167   174   175 1
  168   173   174 1
  169   173   176 1
  170   172   173 1
  171   172   177 1
  172   171   172 1
  173   171   178 1
  174   170   171 1
  175   169   170 1
  176   169   174 1
  177   167   168 1
  178   167   169 1
  179   166   167 1
  180   166   180 1
  181   165   166 1
  182   165   170 1
  183   164   165 1
  184   164   179 1
  185   163   164 1
  186   163   180 1
@<TRIPOS>SUBSTRUCTURE
      1  XJL              1 ****               0 ****  **** 
      2  JLK             14 ****               0 ****  **** 
      3  KKK             23 ****               0 ****  **** 
      4  KKK             30 ****               0 ****  **** 
      5  KKK             37 ****               0 ****  **** 
      6  KKK             44 ****               0 ****  **** 
      7  KKK             51 ****               0 ****  **** 
      8  KKK             58 ****               0 ****  **** 
      9  KKK             65 ****               0 ****  **** 
     10  KKK             72 ****               0 ****  **** 
     11  KKT             79 ****               0 ****  **** 
     12  KTL             86 ****               0 ****  **** 
     13  TLI            128 ****               0 ****  **** 
     14  LIP            137 ****               0 ****  **** 
     15  IPX            163 ****               0 ****  **** 
