@<TRIPOS>MOLECULE
XJL
  124   130     7     0     1 
SMALL
USER_CHARGES
@<TRIPOS>ATOM
  1 C1      3.540003    1.419779    0.000002 C     1 XJL    -0.1201 ****
  2 H3      2.546808    1.870918   -0.050009 H     1 XJL     0.0265 ****
  3 H4      3.600006    0.813569    0.906298 H     1 XJL     0.0265 ****
  4 H5      3.673925    0.776066   -0.870618 H     1 XJL     0.0265 ****
  5 C2      4.613271    2.530959    0.019999 C     1 XJL    -0.1024 ****
  6 H6      4.523331    3.114735   -0.899656 H     1 XJL     0.0289 ****
  7 H7      4.400273    3.193080    0.863134 H     1 XJL     0.0289 ****
  8 C3      6.064791    1.994057    0.148969 C     1 XJL    -0.1308 ****
  9 H8      6.149732    1.422294    1.076612 H     1 XJL     0.0431 ****
 10 H9      6.282668    1.325320   -0.687673 H     1 XJL     0.0431 ****
 11 C4      7.106751    3.146897    0.162964 C     1 XJL     0.0378 ****
 12 H10     7.096788    3.633670   -0.815607 H     1 XJL     0.0459 ****
 13 H11     6.797860    3.882755    0.909790 H     1 XJL     0.0459 ****
 14 N1      8.467421    2.680604    0.430391 N     2 JLK     0.0420 ****
 15 N4      8.697581    1.421138    0.624806 N     2 JLK    -0.1663 ****
 16 N7      9.942425    1.198824    0.853204 N     2 JLK    -0.3488 ****
 17 C13     9.580879    3.447476    0.504111 C     2 JLK    -0.1907 ****
 18 H14     9.644120    4.461386    0.383624 H     2 JLK     0.2019 ****
 19 C10    10.618270    2.352558    0.819045 C     2 JLK     0.2462 ****
 20 C15    12.066777    2.226043    1.095126 C     2 JLK     0.1188 ****
 21 H19    12.134104    1.769484    2.088125 H     2 JLK     0.0484 ****
 22 H20    12.447305    1.505154    0.364002 H     2 JLK     0.0484 ****
 23 O13    12.659442    3.529390    1.069454 O     3 LKT    -0.4194 ****
 24 C9     14.052641    3.496207    1.325939 C     3 LKT     0.1312 ****
 25 H48    14.553360    2.882225    0.562848 H     3 LKT     0.0395 ****
 26 H49    14.232796    3.061851    2.320363 H     3 LKT     0.0395 ****
 27 C15    14.598873    4.926743    1.278818 C     3 LKT     0.1281 ****
 28 H43    14.097998    5.539719    2.042614 H     3 LKT     0.0406 ****
 29 H44    14.417943    5.359261    0.282628 H     3 LKT     0.0406 ****
 30 O3     16.006286    4.870983    1.537087 O     4 KTL    -0.3851 ****
 31 C13    16.610909    6.149021    1.515923 C     4 KTL     0.1052 ****
 32 H22    16.149394    6.804517    2.295188 H     4 KTL     0.0521 ****
 33 H23    16.476622    6.632576    0.522489 H     4 KTL     0.0521 ****
 34 C11    18.129296    6.034348    1.800091 C     4 KTL     0.1679 ****
 35 O2     18.471725    5.691955    3.110480 O     4 KTL    -0.4021 ****
 36 C10    18.032808    4.622065    3.824320 C     4 KTL     0.7269 ****
 37 C5     19.040975    3.675913    4.458225 C     4 KTL    -0.0587 ****
 38 C4     18.341303    2.479601    5.115837 C     4 KTL    -0.0680 ****
 39 C1     19.342629    1.485829    5.779346 C     4 KTL     0.2020 ****
 40 N      20.746170    1.941392    5.746039 N     4 KTL     0.0396 ****
 41 O      21.377992    1.517334    7.785721 O     4 KTL    -0.1099 ****
 42 LP     21.461986    1.866503    8.056878 L     4 KTL    -0.1024 ****
 43 LP     21.425251    1.096632    7.938287 L     4 KTL    -0.1024 ****
 44 C2     21.062394    3.364591    5.969939 C     4 KTL     0.2020 ****
 45 C3     19.884705    4.307328    5.580502 C     4 KTL    -0.0680 ****
 46 H3     20.283156    5.310418    5.308811 H     4 KTL     0.0257 ****
 47 H4     19.212649    4.478661    6.452271 H     4 KTL     0.0257 ****
 48 C6     22.278146    3.687742    5.078152 C     4 KTL    -0.0829 ****
 49 H5     22.033599    3.567680    4.003134 H     4 KTL     0.0289 ****
 50 H6     23.129744    3.013787    5.317129 H     4 KTL     0.0289 ****
 51 H7     22.619323    4.733996    5.244643 H     4 KTL     0.0289 ****
 52 C7     21.498384    3.568021    7.434962 C     4 KTL    -0.0829 ****
 53 H8     20.680654    3.339275    8.142080 H     4 KTL     0.0289 ****
 54 H9     21.820199    4.614782    7.616143 H     4 KTL     0.0289 ****
 55 H10    22.345895    2.888818    7.678226 H     4 KTL     0.0289 ****
 56 C8     19.298687    0.164450    4.989645 C     4 KTL    -0.0829 ****
 57 H11    19.581687    0.337463    3.928268 H     4 KTL     0.0289 ****
 58 H12    18.275461   -0.273001    5.009999 H     4 KTL     0.0289 ****
 59 H13    20.000246   -0.580196    5.422817 H     4 KTL     0.0289 ****
 60 C9     18.930033    1.179072    7.232049 C     4 KTL    -0.0829 ****
 61 H14    18.899672    2.103374    7.840484 H     4 KTL     0.0289 ****
 62 H15    19.650131    0.472542    7.697448 H     4 KTL     0.0289 ****
 63 H16    17.915179    0.728327    7.267000 H     4 KTL     0.0289 ****
 64 H1     17.656531    2.887303    5.897068 H     4 KTL     0.0257 ****
 65 H2     17.668496    1.966618    4.392685 H     4 KTL     0.0257 ****
 66 H17    19.695578    3.328868    3.630351 H     4 KTL     0.0363 ****
 67 O1     16.834571    4.391714    3.907366 O     4 KTL    -0.5046 ****
 68 H21    18.546162    5.270105    1.106604 H     4 KTL     0.1023 ****
 69 C12    18.810435    7.366042    1.473593 C     4 KTL    -0.1193 ****
 70 H18    18.419383    8.171485    2.131362 H     4 KTL     0.0582 ****
 71 H19    18.626802    7.647101    0.413485 H     4 KTL     0.0582 ****
 72 N1     20.257917    7.291674    1.665188 N     5 TLI     0.0420 ****
 73 N4     20.706665    6.145306    2.067046 N     5 TLI    -0.1663 ****
 74 N7     21.982411    6.165294    2.219686 N     5 TLI    -0.3488 ****
 75 C13    21.045704    8.367320    1.429194 C     5 TLI    -0.1907 ****
 76 H14    20.750680    9.293487    1.110282 H     5 TLI     0.2019 ****
 77 C10    22.452422    7.379338    1.912733 C     5 TLI     0.2462 ****
 78 C15    23.916237    7.518668    2.080765 C     5 TLI     0.1188 ****
 79 H19    24.112181    7.276256    3.130464 H     5 TLI     0.0484 ****
 80 H20    24.362954    6.733190    1.462305 H     5 TLI     0.0484 ****
 81 O1     24.293030    8.864347    1.768039 O     6 LIP    -0.4130 ****
 82 C2     25.710044    9.086213    1.907055 C     6 LIP     0.1213 ****
 83 H8     26.261223    8.421934    1.233289 H     6 LIP     0.0497 ****
 84 H9     25.983566    8.876207    2.945284 H     6 LIP     0.0497 ****
 85 C3     26.119368   10.550442    1.566684 C     6 LIP     0.1290 ****
 86 O5     25.393085   10.999908    0.398650 O     6 LIP    -0.4403 ****
 87 C6     24.160005   11.585347    0.398618 C     6 LIP     0.6495 ****
 88 O7     23.547047   11.784851    1.478917 O     6 LIP    -0.5285 ****
 89 C8     23.490081   11.972430   -0.859514 C     6 LIP    -0.1475 ****
 90 C9     24.168778   13.160058   -1.594850 C     6 LIP     0.0373 ****
 91 N10    23.314067   13.803674   -2.560101 N     6 LIP    -0.2101 ****
 92 C12    22.508659   13.212305   -3.470873 C     6 LIP     0.3920 ****
 93 H14    22.386684   12.205946   -3.592546 H     6 LIP     0.0640 ****
 94 N15    21.863332   14.133042   -4.205341 N     6 LIP    -0.6696 ****
 95 C18    22.266891   15.331426   -3.764958 C     6 LIP     0.2899 ****
 96 H20    21.958847   16.235624   -4.128301 H     6 LIP     0.0411 ****
 97 C21    23.175853   15.131316   -2.736603 C     6 LIP    -0.2588 ****
 98 H22    23.654588   15.871357   -2.217294 H     6 LIP     0.1758 ****
 99 H15    24.496109   13.897147   -0.854189 H     6 LIP     0.0886 ****
100 H16    25.060275   12.795811   -2.111769 H     6 LIP     0.0886 ****
101 H13    23.470365   11.099526   -1.517008 H     6 LIP     0.0886 ****
102 H6     22.452236   12.244045   -0.645182 H     6 LIP     0.0886 ****
103 H10    25.834297   11.185395    2.413315 H     6 LIP     0.1086 ****
104 C1     27.674489   10.661469    1.430686 C     6 LIP     0.0343 ****
105 H11    28.084204   10.667647    2.446127 H     6 LIP     0.0856 ****
106 H12    28.065780    9.768741    0.936138 H     6 LIP     0.0856 ****
107 N2     28.068003   11.884381    0.732777 N     7 IPX     0.5744 ****
108 C9     29.383352   12.148962    0.522970 C     7 IPX    -0.2701 ****
109 C8     29.393695   13.355534   -0.148773 C     7 IPX    -0.3358 ****
110 N7     28.086916   13.741594   -0.300190 N     7 IPX     0.4827 ****
111 Cu21   27.816379   15.520924   -1.279575 C     7 IPX    -0.0602 ****
112 I22    26.790804   17.484619   -2.325805 I     7 IPX    -0.4374 ****
113 N15    30.026603   15.329158   -1.277925 N     7 IPX    -0.1975 ****
114 C10    30.466399   14.208285   -0.674077 C     7 IPX     0.4577 ****
115 C11    31.826839   13.904238   -0.568432 C     7 IPX    -0.2243 ****
116 C12    32.749219   14.798404   -1.109652 C     7 IPX    -0.1178 ****
117 C13    32.290633   15.958386   -1.734286 C     7 IPX    -0.1056 ****
118 C14    30.914952   16.181763   -1.794527 C     7 IPX     0.0182 ****
119 H19    30.493373   17.065226   -2.267107 H     7 IPX     0.1229 ****
120 H18    32.980119   16.675593   -2.167238 H     7 IPX     0.1352 ****
121 H17    33.812820   14.589451   -1.042664 H     7 IPX     0.1492 ****
122 H16    32.155076   12.994424   -0.076778 H     7 IPX     0.1597 ****
123 H20    30.168004   11.487317    0.852565 H     7 IPX     0.2051 ****
124 N6     27.055596   12.675497    0.341861 N     7 IPX    -0.5563 ****
@<TRIPOS>BOND
    1    11    12 1
    2    11    13 1
    3    11    14 1
    4     8     9 1
    5     8    10 1
    6     8    11 1
    7     5     6 1
    8     5     7 1
    9     5     8 1
   10     1     2 1
   11     1     3 1
   12     1     4 1
   13     1     5 1
   14    20    21 1
   15    20    22 1
   16    20    23 1
   17    19    20 1
   18    17    18 1
   19    17    19 1
   20    16    19 1
   21    15    16 1
   22    14    15 1
   23    14    17 1
   24    27    28 1
   25    27    29 1
   26    27    30 1
   27    24    25 1
   28    24    26 1
   29    24    27 1
   30    23    24 1
   31    69    70 1
   32    69    71 1
   33    69    72 1
   34    60    61 1
   35    60    62 1
   36    60    63 1
   37    56    57 1
   38    56    58 1
   39    56    59 1
   40    52    53 1
   41    52    54 1
   42    52    55 1
   43    48    49 1
   44    48    50 1
   45    48    51 1
   46    45    46 1
   47    45    47 1
   48    44    45 1
   49    44    48 1
   50    44    52 1
   51    41    42 1
   52    41    43 1
   53    40    41 1
   54    40    44 1
   55    39    40 1
   56    39    56 1
   57    39    60 1
   58    38    39 1
   59    38    64 1
   60    38    65 1
   61    37    38 1
   62    37    66 1
   63    37    45 1
   64    36    37 1
   65    36    67 1
   66    35    36 1
   67    34    35 1
   68    34    68 1
   69    34    69 1
   70    31    32 1
   71    31    33 1
   72    31    34 1
   73    30    31 1
   74    78    79 1
   75    78    80 1
   76    78    81 1
   77    77    78 1
   78    75    76 1
   79    75    77 1
   80    74    77 1
   81    73    74 1
   82    72    73 1
   83    72    75 1
   84   104   105 1
   85   104   106 1
   86   104   107 1
   87    97    98 1
   88    95    96 1
   89    95    97 1
   90    94    95 1
   91    92    93 1
   92    92    94 1
   93    91    92 1
   94    91    97 1
   95    90    91 1
   96    90    99 1
   97    90   100 1
   98    89    90 1
   99    89   101 1
  100    89   102 1
  101    87    88 1
  102    87    89 1
  103    86    87 1
  104    85    86 1
  105    85   103 1
  106    85   104 1
  107    82    83 1
  108    82    84 1
  109    82    85 1
  110    81    82 1
  111   118   119 1
  112   117   118 1
  113   117   120 1
  114   116   117 1
  115   116   121 1
  116   115   116 1
  117   115   122 1
  118   114   115 1
  119   113   114 1
  120   113   118 1
  121   111   112 1
  122   111   113 1
  123   110   111 1
  124   110   124 1
  125   109   110 1
  126   109   114 1
  127   108   109 1
  128   108   123 1
  129   107   108 1
  130   107   124 1
@<TRIPOS>SUBSTRUCTURE
      1  XJL              1 ****               0 ****  **** 
      2  JLK             14 ****               0 ****  **** 
      3  LKT             23 ****               0 ****  **** 
      4  KTL             30 ****               0 ****  **** 
      5  TLI             72 ****               0 ****  **** 
      6  LIP             81 ****               0 ****  **** 
      7  IPX            107 ****               0 ****  **** 
