@<TRIPOS>MOLECULE
XJL
  117   123     6     0     1 
SMALL
USER_CHARGES
@<TRIPOS>ATOM
  1 C1      3.540003    1.419779    0.000002 C     1 XJL    -0.1201 ****
  2 H3      2.546808    1.870918   -0.050009 H     1 XJL     0.0265 ****
  3 H4      3.600006    0.813569    0.906298 H     1 XJL     0.0265 ****
  4 H5      3.673925    0.776066   -0.870618 H     1 XJL     0.0265 ****
  5 C2      4.613271    2.530959    0.019999 C     1 XJL    -0.1024 ****
  6 H6      4.523331    3.114735   -0.899656 H     1 XJL     0.0289 ****
  7 H7      4.400273    3.193080    0.863134 H     1 XJL     0.0289 ****
  8 C3      6.064791    1.994057    0.148969 C     1 XJL    -0.1308 ****
  9 H8      6.149732    1.422294    1.076612 H     1 XJL     0.0431 ****
 10 H9      6.282668    1.325320   -0.687673 H     1 XJL     0.0431 ****
 11 C4      7.106751    3.146897    0.162964 C     1 XJL     0.0378 ****
 12 H10     7.096788    3.633670   -0.815607 H     1 XJL     0.0459 ****
 13 H11     6.797860    3.882755    0.909790 H     1 XJL     0.0459 ****
 14 N1      8.467421    2.680604    0.430391 N     2 JLT     0.0420 ****
 15 N4      8.697581    1.421138    0.624806 N     2 JLT    -0.1663 ****
 16 N7      9.942425    1.198824    0.853204 N     2 JLT    -0.3488 ****
 17 C13     9.580879    3.447476    0.504111 C     2 JLT    -0.1907 ****
 18 H14     9.644120    4.461386    0.383624 H     2 JLT     0.2019 ****
 19 C10    10.618270    2.352558    0.819045 C     2 JLT     0.2462 ****
 20 C15    12.066777    2.226043    1.095126 C     2 JLT     0.1188 ****
 21 H19    12.134104    1.769484    2.088125 H     2 JLT     0.0484 ****
 22 H20    12.447305    1.505154    0.364002 H     2 JLT     0.0484 ****
 23 O3     12.659442    3.529390    1.069454 O     3 LTL    -0.3851 ****
 24 C13    14.049691    3.496277    1.325396 C     3 LTL     0.1052 ****
 25 H22    14.566895    2.873907    0.553981 H     3 LTL     0.0521 ****
 26 H23    14.255926    3.059696    2.328208 H     3 LTL     0.0521 ****
 27 C11    14.641537    4.927224    1.286519 C     3 LTL     0.1679 ****
 28 O2     14.702570    5.518654    0.022361 O     3 LTL    -0.4021 ****
 29 C10    13.684111    5.677592   -0.863281 C     3 LTL     0.7269 ****
 30 C5     13.378094    7.060587   -1.417464 C     3 LTL    -0.0587 ****
 31 C4     12.126818    7.038055   -2.304570 C     3 LTL    -0.0680 ****
 32 C1     11.780508    8.439194   -2.893941 C     3 LTL     0.2020 ****
 33 N      12.777316    9.481614   -2.580397 N     3 LTL     0.0396 ****
 34 O      13.011201   10.441644   -4.520234 O     3 LTL    -0.1099 ****
 35 LP     13.012809   10.891443   -4.533575 L     3 LTL    -0.1024 ****
 36 LP     13.056975   10.204436   -4.899888 L     3 LTL    -0.1024 ****
 37 C2     14.215025    9.152472   -2.597249 C     3 LTL     0.2020 ****
 38 C3     14.486868    7.645268   -2.311242 C     3 LTL    -0.0680 ****
 39 H3     15.502863    7.525417   -1.872882 H     3 LTL     0.0257 ****
 40 H4     14.499447    7.060574   -3.259383 H     3 LTL     0.0257 ****
 41 C6     14.870183    9.998706   -1.487105 C     3 LTL    -0.0829 ****
 42 H5     14.479043    9.724319   -0.486304 H     3 LTL     0.0289 ****
 43 H6     14.673350   11.080759   -1.651307 H     3 LTL     0.0289 ****
 44 H7     15.973682    9.853640   -1.483319 H     3 LTL     0.0289 ****
 45 C7     14.827184    9.600068   -3.939890 C     3 LTL    -0.0829 ****
 46 H8     14.394382    9.046956   -4.792987 H     3 LTL     0.0289 ****
 47 H9     15.925358    9.439060   -3.953666 H     3 LTL     0.0289 ****
 48 H10    14.624664   10.681261   -4.109527 H     3 LTL     0.0289 ****
 49 C8     10.454316    8.907203   -2.266420 C     3 LTL    -0.0829 ****
 50 H11    10.550581    8.973084   -1.160556 H     3 LTL     0.0289 ****
 51 H12     9.633286    8.193723   -2.502271 H     3 LTL     0.0289 ****
 52 H13    10.163342    9.907164   -2.653374 H     3 LTL     0.0289 ****
 53 C9     11.575794    8.357692   -4.419107 C     3 LTL    -0.0829 ****
 54 H14    12.486862    7.981716   -4.923138 H     3 LTL     0.0289 ****
 55 H15    11.332011    9.360486   -4.830561 H     3 LTL     0.0289 ****
 56 H16    10.748954    7.659073   -4.669285 H     3 LTL     0.0289 ****
 57 H1     12.328992    6.327561   -3.141099 H     3 LTL     0.0257 ****
 58 H2     11.263039    6.593658   -1.761277 H     3 LTL     0.0257 ****
 59 H17    13.209198    7.712460   -0.533804 H     3 LTL     0.0363 ****
 60 O1     12.983284    4.722679   -1.167768 O     3 LTL    -0.5046 ****
 61 H21    14.023016    5.567073    1.954945 H     3 LTL     0.1023 ****
 62 C12    16.060851    4.906979    1.860190 C     3 LTL    -0.1193 ****
 63 H18    16.721004    4.268093    1.235415 H     3 LTL     0.0582 ****
 64 H19    16.054832    4.509785    2.898816 H     3 LTL     0.0582 ****
 65 N1     16.642837    6.247414    1.904573 N     4 TLI     0.0420 ****
 66 N4     15.881794    7.198056    1.463985 N     4 TLI    -0.1663 ****
 67 N7     16.468070    8.339723    1.528037 N     4 TLI    -0.3488 ****
 68 C13    17.895024    6.445286    2.380169 C     4 TLI    -0.1907 ****
 69 H14    18.539583    5.737911    2.741684 H     4 TLI     0.2019 ****
 70 C10    17.696195    8.186026    2.035107 C     4 TLI     0.2462 ****
 71 C15    18.471210    9.443463    2.127859 C     4 TLI     0.1188 ****
 72 H19    18.515090    9.833341    1.105560 H     4 TLI     0.0484 ****
 73 H20    17.859094   10.127015    2.725433 H     4 TLI     0.0484 ****
 74 O1     19.775755    9.147660    2.639022 O     5 LIP    -0.4130 ****
 75 C2     20.599384   10.323753    2.761174 C     5 LIP     0.1213 ****
 76 H8     20.130221   11.040619    3.443094 H     5 LIP     0.0497 ****
 77 H9     20.703169   10.767044    1.766409 H     5 LIP     0.0497 ****
 78 C3     22.018555   10.001290    3.317352 C     5 LIP     0.1290 ****
 79 O5     21.913264    9.035330    4.389567 O     5 LIP    -0.4403 ****
 80 C6     21.909119    7.677816    4.246868 C     5 LIP     0.6495 ****
 81 O7     22.006873    7.154549    3.107043 O     5 LIP    -0.5285 ****
 82 C8     21.757225    6.780515    5.410186 C     5 LIP    -0.1475 ****
 83 C9     22.978817    6.780279    6.369104 C     5 LIP     0.0373 ****
 84 N10    23.025532    5.634461    7.241685 N     5 LIP    -0.2101 ****
 85 C12    22.004151    5.087744    7.938669 C     5 LIP     0.3920 ****
 86 H14    21.036928    5.414652    7.931508 H     5 LIP     0.0640 ****
 87 N15    22.425110    4.028527    8.648953 N     5 LIP    -0.6696 ****
 88 C18    23.736376    3.899345    8.410597 C     5 LIP     0.2899 ****
 89 H20    24.348406    3.185607    8.811198 H     5 LIP     0.0411 ****
 90 C21    24.117721    4.902508    7.531956 C     5 LIP    -0.2588 ****
 91 H22    25.066633    5.052291    7.180304 H     5 LIP     0.1758 ****
 92 H15    23.897800    6.819394    5.774995 H     5 LIP     0.0886 ****
 93 H16    22.947589    7.682448    6.985354 H     5 LIP     0.0886 ****
 94 H13    20.862324    7.084034    5.959437 H     5 LIP     0.0886 ****
 95 H6     21.593048    5.758344    5.056564 H     5 LIP     0.0886 ****
 96 H10    22.603877    9.551938    2.506984 H     5 LIP     0.1086 ****
 97 C1     22.756265   11.321364    3.720358 C     5 LIP     0.0343 ****
 98 H11    23.106429   11.787259    2.793346 H     5 LIP     0.0856 ****
 99 H12    22.045973   12.016053    4.175924 H     5 LIP     0.0856 ****
100 N2     23.894150   11.055565    4.599001 N     6 IPX     0.5744 ****
101 C9     24.653993   12.086423    5.050813 C     6 IPX    -0.2701 ****
102 C8     25.618675   11.489711    5.838521 C     6 IPX    -0.3358 ****
103 N7     25.380478   10.139843    5.810983 N     6 IPX     0.4827 ****
104 Cu21   26.683358    9.006784    6.914198 C     6 IPX    -0.0602 ****
105 I22    27.817664    7.113131    7.977178 I     6 IPX    -0.4374 ****
106 N15    27.453678   11.058522    7.258940 N     6 IPX    -0.1975 ****
107 C10    26.745375   12.010572    6.621511 C     6 IPX     0.4577 ****
108 C11    27.071661   13.366981    6.711485 C     6 IPX    -0.2243 ****
109 C12    28.168549   13.734049    7.489518 C     6 IPX    -0.1178 ****
110 C13    28.900147   12.745745    8.148339 C     6 IPX    -0.1056 ****
111 C14    28.503254   11.416339    8.002804 C     6 IPX     0.0182 ****
112 H19    29.030209   10.599623    8.489488 H     6 IPX     0.1229 ****
113 H18    29.758724   12.995494    8.762909 H     6 IPX     0.1352 ****
114 H17    28.446593   14.780100    7.578197 H     6 IPX     0.1492 ****
115 H16    26.484751   14.114344    6.187835 H     6 IPX     0.1597 ****
116 H20    24.454816   13.112737    4.787959 H     6 IPX     0.2051 ****
117 N6     24.101252    9.762725    4.897869 N     6 IPX    -0.5563 ****
@<TRIPOS>BOND
    1    11    12 1
    2    11    13 1
    3    11    14 1
    4     8     9 1
    5     8    10 1
    6     8    11 1
    7     5     6 1
    8     5     7 1
    9     5     8 1
   10     1     2 1
   11     1     3 1
   12     1     4 1
   13     1     5 1
   14    20    21 1
   15    20    22 1
   16    20    23 1
   17    19    20 1
   18    17    18 1
   19    17    19 1
   20    16    19 1
   21    15    16 1
   22    14    15 1
   23    14    17 1
   24    62    63 1
   25    62    64 1
   26    62    65 1
   27    53    54 1
   28    53    55 1
   29    53    56 1
   30    49    50 1
   31    49    51 1
   32    49    52 1
   33    45    46 1
   34    45    47 1
   35    45    48 1
   36    41    42 1
   37    41    43 1
   38    41    44 1
   39    38    39 1
   40    38    40 1
   41    37    38 1
   42    37    41 1
   43    37    45 1
   44    34    35 1
   45    34    36 1
   46    33    34 1
   47    33    37 1
   48    32    33 1
   49    32    49 1
   50    32    53 1
   51    31    32 1
   52    31    57 1
   53    31    58 1
   54    30    31 1
   55    30    59 1
   56    30    38 1
   57    29    30 1
   58    29    60 1
   59    28    29 1
   60    27    28 1
   61    27    61 1
   62    27    62 1
   63    24    25 1
   64    24    26 1
   65    24    27 1
   66    23    24 1
   67    71    72 1
   68    71    73 1
   69    71    74 1
   70    70    71 1
   71    68    69 1
   72    68    70 1
   73    67    70 1
   74    66    67 1
   75    65    66 1
   76    65    68 1
   77    97    98 1
   78    97    99 1
   79    97   100 1
   80    90    91 1
   81    88    89 1
   82    88    90 1
   83    87    88 1
   84    85    86 1
   85    85    87 1
   86    84    85 1
   87    84    90 1
   88    83    84 1
   89    83    92 1
   90    83    93 1
   91    82    83 1
   92    82    94 1
   93    82    95 1
   94    80    81 1
   95    80    82 1
   96    79    80 1
   97    78    79 1
   98    78    96 1
   99    78    97 1
  100    75    76 1
  101    75    77 1
  102    75    78 1
  103    74    75 1
  104   111   112 1
  105   110   111 1
  106   110   113 1
  107   109   110 1
  108   109   114 1
  109   108   109 1
  110   108   115 1
  111   107   108 1
  112   106   107 1
  113   106   111 1
  114   104   105 1
  115   104   106 1
  116   103   104 1
  117   103   117 1
  118   102   103 1
  119   102   107 1
  120   101   102 1
  121   101   116 1
  122   100   101 1
  123   100   117 1
@<TRIPOS>SUBSTRUCTURE
      1  XJL              1 ****               0 ****  **** 
      2  JLT             14 ****               0 ****  **** 
      3  LTL             23 ****               0 ****  **** 
      4  TLI             65 ****               0 ****  **** 
      5  LIP             74 ****               0 ****  **** 
      6  IPX            100 ****               0 ****  **** 
